========================================================
Start time       : Monday December 09 15:27:24 CEST 2019
========================================================
  Command        : /home/yohann-ws2/Code_Saturne/6.0-beta_211119/code_saturne-6.0.0-patch/arch/Linux_x86_64/bin/code_saturne run --param setup.xml --threads-per-task 2 --nprocs 6 --id 20191209-1527
========================================================
  Package path   : /home/yohann-ws2/Code_Saturne/6.0-beta_211119/code_saturne-6.0.0-patch/arch/Linux_x86_64
  ----------------------------------------------------
  MPI path       : 
  MPI type       : OpenMPI
  ----------------------------------------------------
  User           : yohann-ws2
  ----------------------------------------------------
  Machine        : Linux Renuda-FR 4.15.0-72-generic #81-Ubuntu SMP Tue Nov 26 12:20:02 UTC 2019 x86_64 x86_64 
  N Procs        : 6
  ----------------------------------------------------
  Environment variables
    CLUTTER_IM_MODULE=xim
    COLORTERM=truecolor
    DBUS_SESSION_BUS_ADDRESS=unix:path=/run/user/1000/bus,guid=16822f954e35f92f957309a25dee036c
    DBUS_STARTER_ADDRESS=unix:path=/run/user/1000/bus,guid=16822f954e35f92f957309a25dee036c
    DBUS_STARTER_BUS_TYPE=session
    DEFAULTS_PATH=/usr/share/gconf/ubuntu.default.path
    DESKTOP_SESSION=ubuntu
    DISPLAY=:1
    GDMSESSION=ubuntu
    GNOME_DESKTOP_SESSION_ID=this-is-deprecated
    GNOME_SHELL_SESSION_MODE=ubuntu
    GNOME_TERMINAL_SCREEN=/org/gnome/Terminal/screen/24e41b22_df57_4109_8335_d67208ed70f7
    GNOME_TERMINAL_SERVICE=:1.114
    GPG_AGENT_INFO=/run/user/1000/gnupg/S.gpg-agent:0:1
    GTK2_MODULES=overlay-scrollbar
    GTK_IM_MODULE=ibus
    GTK_MODULES=gail:atk-bridge
    HOME=/home/yohann-ws2
    IM_CONFIG_PHASE=2
    INVOCATION_ID=87b6176d9a5843f9b15887a65bd17099
    JOURNAL_STREAM=9:43374
    LANG=en_US.UTF-8
    LC_ADDRESS=fr_FR.UTF-8
    LC_IDENTIFICATION=fr_FR.UTF-8
    LC_MEASUREMENT=fr_FR.UTF-8
    LC_MONETARY=fr_FR.UTF-8
    LC_NAME=fr_FR.UTF-8
    LC_NUMERIC=fr_FR.UTF-8
    LC_PAPER=fr_FR.UTF-8
    LC_TELEPHONE=fr_FR.UTF-8
    LC_TIME=fr_FR.UTF-8
    LD_LIBRARY_PATH=/home/yohann-ws2/salome/SALOME-8.3.0-UB16.04/BINARIES-UB16.04/hdf5/lib:
    LESSCLOSE=/usr/bin/lesspipe %s %s
    LESSOPEN=| /usr/bin/lesspipe %s
    LOGNAME=yohann-ws2
    LS_COLORS=rs=0:di=01;34:ln=01;36:mh=00:pi=40;33:so=01;35:do=01;35:bd=40;33;01:cd=40;33;01:or=40;31;01:mi=00:su=37;41:sg=30;43:ca=30;41:tw=30;42:ow=34;42:st=37;44:ex=01;32:*.tar=01;31:*.tgz=01;31:*.arc=01;31:*.arj=01;31:*.taz=01;31:*.lha=01;31:*.lz4=01;31:*.lzh=01;31:*.lzma=01;31:*.tlz=01;31:*.txz=01;31:*.tzo=01;31:*.t7z=01;31:*.zip=01;31:*.z=01;31:*.Z=01;31:*.dz=01;31:*.gz=01;31:*.lrz=01;31:*.lz=01;31:*.lzo=01;31:*.xz=01;31:*.zst=01;31:*.tzst=01;31:*.bz2=01;31:*.bz=01;31:*.tbz=01;31:*.tbz2=01;31:*.tz=01;31:*.deb=01;31:*.rpm=01;31:*.jar=01;31:*.war=01;31:*.ear=01;31:*.sar=01;31:*.rar=01;31:*.alz=01;31:*.ace=01;31:*.zoo=01;31:*.cpio=01;31:*.7z=01;31:*.rz=01;31:*.cab=01;31:*.wim=01;31:*.swm=01;31:*.dwm=01;31:*.esd=01;31:*.jpg=01;35:*.jpeg=01;35:*.mjpg=01;35:*.mjpeg=01;35:*.gif=01;35:*.bmp=01;35:*.pbm=01;35:*.pgm=01;35:*.ppm=01;35:*.tga=01;35:*.xbm=01;35:*.xpm=01;35:*.tif=01;35:*.tiff=01;35:*.png=01;35:*.svg=01;35:*.svgz=01;35:*.mng=01;35:*.pcx=01;35:*.mov=01;35:*.mpg=01;35:*.mpeg=01;35:*.m2v=01;35:*.mkv=01;35:*.webm=01;35:*.ogm=01;35:*.mp4=01;35:*.m4v=01;35:*.mp4v=01;35:*.vob=01;35:*.qt=01;35:*.nuv=01;35:*.wmv=01;35:*.asf=01;35:*.rm=01;35:*.rmvb=01;35:*.flc=01;35:*.avi=01;35:*.fli=01;35:*.flv=01;35:*.gl=01;35:*.dl=01;35:*.xcf=01;35:*.xwd=01;35:*.yuv=01;35:*.cgm=01;35:*.emf=01;35:*.ogv=01;35:*.ogx=01;35:*.aac=00;36:*.au=00;36:*.flac=00;36:*.m4a=00;36:*.mid=00;36:*.midi=00;36:*.mka=00;36:*.mp3=00;36:*.mpc=00;36:*.ogg=00;36:*.ra=00;36:*.wav=00;36:*.oga=00;36:*.opus=00;36:*.spx=00;36:*.xspf=00;36:
    MANAGERPID=29160
    MANDATORY_PATH=/usr/share/gconf/ubuntu.mandatory.path
    PATH=/home/yohann-ws2/Code_Saturne/6.0-beta_211119/code_saturne-6.0.0-patch/arch/Linux_x86_64/bin:/home/yohann-ws2/Documents/INTERNE/Convertisseur/med/med-3.0.5_SRC_INSTALL/bin/testf:/home/yohann-ws2/Code_Saturne/6.0-beta_160919/code_saturne-6.0-beta/arch/Linux_x86_64/bin:/home/yohann-ws2/bin:/home/yohann-ws2/.local/bin:/usr/local/sbin:/usr/local/bin:/usr/sbin:/usr/bin:/sbin:/bin:/usr/games:/usr/local/games:/snap/bin
    PWD=/home/yohann-ws2/Documents/EDF/ETUDE_2019/HERCULE/Work/HERCULE/HERCULE-6.0.0-CALC/HERCULE-DIPH-STD/SCRIPTS
    QT4_IM_MODULE=xim
    QT_ACCESSIBILITY=1
    QT_IM_MODULE=ibus
    QT_QPA_PLATFORMTHEME=appmenu-qt5
    SESSION_MANAGER=local/Renuda-FR:@/tmp/.ICE-unix/2295,unix/Renuda-FR:/tmp/.ICE-unix/2295
    SHELL=/bin/bash
    SHLVL=2
    SSH_AGENT_PID=2402
    SSH_AUTH_SOCK=/run/user/1000/keyring/ssh
    TERM=xterm-256color
    TEXTDOMAIN=im-config
    TEXTDOMAINDIR=/usr/share/locale/
    USER=yohann-ws2
    USERNAME=yohann-ws2
    VTE_VERSION=5202
    WINDOWPATH=2
    XAUTHORITY=/run/user/1000/gdm/Xauthority
    XDG_CONFIG_DIRS=/etc/xdg/xdg-ubuntu:/etc/xdg
    XDG_CURRENT_DESKTOP=ubuntu:GNOME
    XDG_DATA_DIRS=/usr/share/ubuntu:/usr/local/share/:/usr/share/:/var/lib/snapd/desktop:/var/lib/snapd/desktop
    XDG_MENU_PREFIX=gnome-
    XDG_RUNTIME_DIR=/run/user/1000
    XDG_SEAT=seat0
    XDG_SESSION_DESKTOP=ubuntu
    XDG_SESSION_ID=7
    XDG_SESSION_TYPE=x11
    XDG_VTNR=2
    XMODIFIERS=@im=ibus
    _=/home/yohann-ws2/Code_Saturne/6.0-beta_211119/code_saturne-6.0.0-patch/arch/Linux_x86_64/bin/code_saturne
  ----------------------------------------------------
  Case           : HERCULE-DIPH-STD
    directory    : /home/yohann-ws2/Documents/EDF/ETUDE_2019/HERCULE/Work/HERCULE/HERCULE-6.0.0-CALC/HERCULE-DIPH-STD
    results dir. : /home/yohann-ws2/Documents/EDF/ETUDE_2019/HERCULE/Work/HERCULE/HERCULE-6.0.0-CALC/HERCULE-DIPH-STD/RESU/20191209-1527
    solver       : ./cs_solver
  ----------------------------------------------------
========================================================
Finish time      : Monday December 09 15:31:28 CEST 2019
========================================================
