This file is the credits list for the Code_Saturne Kernel, element
of the Code_Saturne CFD tool. The affiliation given for each contributor
refers to the time when that contributor was active in the project,
and does not necessarily correspond to his or her present affiliation.


Code_Saturne is copyright (C) 1998-2007 EDF S.A., France


Major contributions to the Code_Saturne Kernel have been provided by
Archambeau Frédéric   (EDF, Chatou, France)
Béchaud Céline        (EDF, Chatou, France)
Benhamadouche Sofiane (EDF, Chatou, France)
Bonelle Jérôme        (EDF, Chatou, France)
Bosse Sophie          (EDF, Chatou, France)
Boucker Marc          (EDF, Chatou, France)
Douce Alexandre       (EDF, Chatou, France)
Escaich Alain         (EDF, Chatou, France)
Fournier Yvan         (EDF, Chatou, France)
Guimet Valérie        (CS-SI, Le Plessis Robinson, France)
Lavieville Jérôme     (EDF, Chatou, France)
Mechitoua Namane      (EDF, Chatou, France)
Monfort David         (EDF, Chatou, France)
Ouraou Mehdi          (INCKA, Boulogne-Billancourt, France)
Pasutto Thomas        (EDF, Chatou, France)
Picard Nicole         (EDF, Chatou, France)
Plion Pierre          (EDF, Chatou, France)
Quemerais Eric        (INCKA, Boulogne-Billancourt, France)
Rousset Jean-Luc      (EDF, Chatou, France)
Sakiz Marc            (EDF, Chatou, France)
Vit Carole            (INCKA, Boulogne-Billancourt, France)


Other contributors to the Code_Saturne Kernel include
Baudry Cyril          (ENSIL, Limoges, France)
Carissimo Bertrand    (EDF, Chatou, France)
Davroux Alexandre     (EDF, Chatou, France)
Delalondre Clarisse   (EDF, Chatou, France)
Gest Brigitte         (EDF, Chatou, France)
Huvelin Fabien        (EDF, Chatou, France)
Lemoine Emmanuel      (INCKA, Boulogne-Billancourt, France)
Robin Vincent         (ENSMA, Poitiers, France)
Rupp Isabelle         (EDF, Chatou, France)
Schuck Ugo            (EDF, Chatou, France)


The Code_Saturne Kernel may contain code by Olivier Devillers
(INRIA, Sophia-Antipolis, France) for Lagrangian particle
trajectory tracking (cs_lagrang.c routine)

The Code_Saturne Kernel may contain code by Wes Petersen
(ETHZ, Zurich, Switzerland) for random number generation
(zufall.F routine)


The following people should also be thanked for cooperating
with the Code_Saturne development team by providing fresh
ideas on theoretical or programming topics or major feedback on
the code.
Balestre Loic         (Xanth Informatique, Issy les Moulineaux, France)
Bournaud Sophie       (EDF, Chatou, France)
Dal Secco Sandro      (EDF, Chatou, France)
Decossin Etienne      (EDF, Chatou, France)
Hérard Jean-Marc      (EDF, Chatou, France)
Jamet Nicolas         (INCKA, Boulogne-Billancourt, France)
Laurence Dominique    (EDF, Chatou, France)
Leclair Matthieu      (EDF, Chatou, France)
Longatte Lacazedieu Elisabeth (EDF, Chatou, France)
Maas Ludovic          (INCKA, Boulogne-Billancourt, France)
Mattei Jean-Daniel    (EDF, Chatou, France)
Minier Jean-Pierre    (EDF, Chatou, France)
Ritz Jean-Benoit      (EDF, Chatou, France)
Thai-Van Dominique    (EDF, Chatou, France)
Vurpillot Christelle  (EDF, Chatou, France)


To the best of our knowledge, this list reflects the exact level of
contribution of each among the many people who have approached
Code_Saturne. It is made as objective and accurate as possible.
However, if you feel you have been misplaced in the list, or completely
forgotten, please contact saturne-support@edf.fr so we can update it.
