This file is the credits list for the Code_Saturne CFD tool. The affiliation
given for each contributor refers to the time when that contributor was active
in the project, and does not necessarily correspond to his or her
present affiliation.


Code_Saturne is copyright (C) 1998-2020 EDF S.A., France


Major contributions to Code_Saturne have been provided by

Frédéric Archambeau      (EDF, Chatou, France)
Bruno Audebert           (EDF, Chatou, France)
Cyril Baudry             (EDF, Chatou, France)
Céline Béchaud           (EDF, Chatou, France)
Sofiane Benhamadouche    (EDF, Chatou, France)
Jérôme Bonelle           (EDF, Chatou, France)
Sophie Bosse             (EDF, Chatou, France)
Marc Boucker             (EDF, Chatou, France)
Alexandre Douce          (EDF, Chatou, France)
Alain Escaich            (EDF, Chatou, France)
Martin Ferrand           (EDF, Chatou, France)
Jacques Fontaine         (EDF, Chatou, France)
Yvan Fournier            (EDF, Chatou, France)
Valérie Guimet           (CS-SI, Le Plessis Robinson, France)
Mathieu Guingo           (EDF, Chatou, France)
Chaï Koren               (EDF, Chatou, France)
Jérôme Lavieville        (EDF, Chatou, France)
Erwan Le Coupanec        (EDF, Chatou, France)
Namane Mechitoua         (EDF, Chatou, France)
David Monfort            (EDF, Chatou, France)
Mehdi Ouraou             (INCKA, Boulogne-Billancourt, France)
Thomas Pasutto           (EDF, Chatou, France)
Nicole Picard            (EDF, Chatou, France)
Pierre Plion             (EDF, Chatou, France)
Éric Quémerais           (INCKA, Boulogne-Billancourt, France)
Dorothée Senechal        (EDF, Chatou, France)
Jean-Luc Rousset         (EDF, Chatou, France)
Marc Sakiz               (EDF, Chatou, France)
Carole Vit               (INCKA, Boulogne-Billancourt, France)
Jean-François Wald       (EDF, Chatou, France)


Other contributors to Code_Saturne include

Pierre Cantin            (EDF, Chatou, France)
Bertrand Carissimo       (EDF, Chatou, France)
Céline Caruyer           (EDF, Chatou, France)
Clément Colas            (EDF, Chatou, France)
Christophe Henry         (INRIA, Nice, France)
Arnaud Cordier           (AREVA NP, Lyon, France)
Frederic Cordier         (Ecole Centrale Paris, France)
Alexandre Davroux        (EDF, Chatou, France)
Benoît de Laage de Meux  (EDF, Chatou, France)
Clarisse Delalondre      (EDF, Chatou, France)
Frédéric Dehoux          (EDF, Chatou, France)
Josselin Demont          (EDF, Chatou, France)
Bruno Delhom             (INCKA, Boulogne-Billancourt, France)
Brigitte Gest            (EDF, Chatou, France)
Richard Howard           (EDF, Chatou, France)
Fabien Huvelin           (EDF, Chatou, France)
François Jusserand       (EDF, Chatou, France)
Gaspard Kemlin           (EDF, Saclay, France)
Sylvestre Ledru          (INRIA, Rocquencourt, France)
Emmanuel Lemoine         (INCKA, Boulogne-Billancourt, France)
Louis Le Tarnec          (EDF, Chatou, France)
Vincent Loizeau          (EDF, Chatou, France)
Jérôme Lucas             (INCKA, Boulogne-Billancourt, France)
Laurent Makke            (EDF, Chatou, France)
Riccardo Milani          (EDF, Chatou, France)
Maya Milliez             (EDF, Chatou, France)
Thibaut Moy              (BERTIN TECHNOLOGIES, Montigny-le-Bretonneux, France)
Vincent Robin            (ENSMA, Poitiers, France)
Bertrand Sapa            (EDF, Chatou, France)
Ugo Schuck               (EDF, Chatou, France)
Vincent Stobiac          (EDF, Chatou, France)
Michaël Tartar           (INCKA, Boulogne-Billancourt, France)
Augustin Tibere-Inglesse (EDF, Chatou, France)
Juan Uribe               (University of Manchester, United Kingdom)
Pascal Vezolle           (IBM, Montpellier, France)


Code_Saturne may contain code by Wes Petersen
(ETHZ, Zurich, Switzerland) for random number generation
(cs_random.c, adapted from Netlib's zufall functions)

Part of the work of the Mathematical Expression Interpreter library
is based in part on previous work by Tom Niemann (http://epaperpress.com/)
with the following authorization: "Source code, when part of a software
project, may be used freely without reference to the author.";
and the hashtable implementation is based on
http://www.liafa.jussieu.fr/~carton/Enseignement/C/Licence/LicenceInfo/Td09/hachage.c
from olivier.carton@liafa.jussieu.fr


The following people should also be thanked for cooperating
with the Code_Saturne development team by providing fresh
ideas on theoretical or programming topics or major feedback on
the code.

Samuel Antao             (IBM, Daresbury, UK)
Loïc Balestre            (Xanth Informatique, Issy les Moulineaux, France)
Sophie Bournaud          (EDF, Chatou, France)
Daniel Castanon          (University of Montpellier, France)
Sandro Dal Secco         (EDF, Chatou, France)
Étienne Decossin         (EDF, Chatou, France)
Charles Demay            (EDF, Chatou, France)
Alexandre Ern            (Ecole des Ponts, France)
Luciano Garelli          (CIMEC, Santa Fe, Argentina)
Marie-Charlotte Gauffre  (EDF, Chatou, France)
Anthony Geay             (EDF, Saclay, France)
Matthieu Guillaud        (INCKA, Boulogne-Billancourt, France)
Jean-Marc Hérard         (EDF, Chatou, France)
Frank Hülsemann          (EDF, Saclay, France)
Nicolas Jamet            (INCKA, Boulogne-Billancourt, France)
Nicolas Jarrin           (University of Manchester, United Kingdom)
Raphaël Lamouroux        (EDF, Chatou, France)
Dominique Laurence       (EDF, Chatou, France)
Matthieu Leclair         (EDF, Chatou, France)
Élisabeth Longatte Lacazedieu (EDF, Chatou, France)
Ludovic Maas             (INCKA, Boulogne-Billancourt, France)
Jean-Daniel Mattei       (EDF, Chatou, France)
Jean-Pierre Minier       (EDF, Chatou, France)
Charles Moulinec         (STFC, United Kingdom)
Christophe Péniguel      (EDF, Chatou, France)
Alejandro Ribes          (EDF, Saclay, France)
Jean-Benoît Ritz         (EDF, Chatou, France)
Mario Storti             (CIMEC, Santa Fe, Argentina)
Nicolas Tonello          (RENUDA, London, UK)
Dominique Thai-Van       (EDF, Chatou, France)
Guillaume Vialaneix      (EDF, Chatou, France)
Christelle Vurpillot     (EDF, Chatou, France)


To the best of our knowledge, this list reflects the exact level of
contribution of each among the many people who have approached
Code_Saturne. It is made as objective and accurate as possible.
However, if you feel you have been misplaced in the list, or completely
forgotten, please contact saturne-support@edf.fr so we can update it.


Preprocessor
============

Major contributions to the Code_Saturne Preprocessor have been provided by

Frédéric Archambeau      (EDF, Chatou, France)
Yvan Fournier            (EDF, Chatou, France)
David Monfort            (EDF, Chatou, France)
Didier Poizat            (CS-SI, Le Plessis Robinson, France)

Other contributors to the Code_Saturne Preprocessor include

Éric Quemerais           (INCKA, Boulogne-Billancourt, France)


Graphical user interface
========================

Major contributions to the Code_Saturne GUI have been provided by

Cyril Baudry             (EDF, Chatou, France)
Sophie Bosse             (EDF, Chatou, France)
Alexandre Douce          (EDF, Chatou, France)
Olivier Gaça             (INCKA, Boulogne-Billancourt, France)
Chaï Koren               (EDF, Chatou, France)
Nicole Picard            (EDF, Chatou, France)
Éric Quémerais           (INCKA, Boulogne-Billancourt, France)
Jean-Luc Rousset         (EDF, Chatou, France)
Michael Tartar           (INCKA, Boulogne-Billancourt, France)

Other contributors to the Code_Saturne GUI include

Yvan Fournier            (EDF, Chatou, France)
Erwan Le Coupanec        (EDF, Chatou, France)
Carole Vit               (INCKA, Boulogne-Billancourt, France)


CFDSTUDY
========

Major contributions to CFDSTUDY have been provided by

Alexandre Douce          (EDF, Chatou, France)
Martine Paolillo         (EDF, Clamart, France)

Other contributors to CFDSTUDY include

Alexander Borodin        (Open Cascade, Nizhny Novgorod, Russie)
Damien Coqueret          (Open Cascade, Lyon, France)
Yvan Fournier            (EDF, Chatou, France)
Nicolas Geimer           (Open Cascade, Clamart, France)
David Monfort            (EDF, Chatou, France)
Jean Rahuel              (Open Cascade, Guyancourt, France)
