2009-12-22 17:42  Code_Saturne development team <saturne-support@edf.fr>

	* [r1116] src/base/cs_sat_coupling.c: Add a HAVE_MPI test to handle
	  non-MPI build.

2009-12-22 17:36  Code_Saturne development team <saturne-support@edf.fr>

	* [r1115] ChangeLog, include/base/cs_sat_coupling.h,
	  src/apps/cs_solver.c, src/base/Makefile.am,
	  src/base/cs_sat_coupling.c, src/base/cs_sat_f2c.f90,
	  src/base/cscloc.f90, src/base/initi1.f90, src/base/tridim.f90,
	  users/base/ussatc.f90: Make code/code coupling compliant with the
	  new discovering mechanism for coupling applications.

2009-12-21 17:00  Code_Saturne development team <saturne-support@edf.fr>

	* [r1114] ChangeLog, gui/Pages/FluidCharacteristicsView.py: Add
	  real-life examples for fluid properties variation laws.

2009-12-21 16:59  Code_Saturne development team <saturne-support@edf.fr>

	* [r1113] ChangeLog, gui/Pages/QMeiEditorView.py: Add syntax
	  highlighting for mathematical expression in the interface.

2009-12-21 16:57  Code_Saturne development team <saturne-support@edf.fr>

	* [r1112] ChangeLog, src/base/cs_gui.c: Fix an issue in the inlet
	  boundary conditions setup for the atmospheric modelling via the
	  graphical interface.

2009-12-18 11:33  Code_Saturne development team <saturne-support@edf.fr>

	* [r1111] ChangeLog, src/base/cs_matrix.c: Fix a bug when copying
	  the matrix coefficient in native format. No impact in current
	  simulations as the code was never used.

2009-12-18 11:26  Code_Saturne development team <saturne-support@edf.fr>

	* [r1110] ChangeLog, bin/cs_exec_environment.py, bin/runcase.help,
	  gui/Base/BrowserView.py, gui/Base/IdView.py, gui/Base/Toolbox.py,
	  gui/Base/XMLvariables.py, gui/Base/__init__.py,
	  gui/Pages/AnalysisFeaturesView.py,
	  gui/Pages/AtmosphericFlowsModel.py,
	  gui/Pages/AtmosphericFlowsView.py,
	  gui/Pages/BatchRunningModel.py, gui/Pages/BodyForcesModel.py,
	  gui/Pages/BodyForcesView.py, gui/Pages/Boundary.py,
	  gui/Pages/BoundaryConditionsCoalInletView.py,
	  gui/Pages/BoundaryConditionsMobileMeshView.py,
	  gui/Pages/BoundaryConditionsParticlesModel.py,
	  gui/Pages/BoundaryConditionsParticlesView.py,
	  gui/Pages/BoundaryConditionsScalarsView.py,
	  gui/Pages/BoundaryConditionsTurbulenceInletView.py,
	  gui/Pages/BoundaryConditionsVelocityInletView.py,
	  gui/Pages/BoundaryConditionsView.py,
	  gui/Pages/BoundaryConditionsWallRadiativeTransferView.py,
	  gui/Pages/CoalCombustionModel.py,
	  gui/Pages/CoalCombustionView.py,
	  gui/Pages/CoalThermoChemistry.py, gui/Pages/CommonCombustion.py,
	  gui/Pages/ConjugateHeatTransferView.py,
	  gui/Pages/CurrentSpeciesView.py,
	  gui/Pages/DefineUserScalarsView.py,
	  gui/Pages/ElectricalModelsModel.py,
	  gui/Pages/FluidCharacteristicsModel.py,
	  gui/Pages/FluidCharacteristicsView.py,
	  gui/Pages/FluidStructureInteractionModel.py,
	  gui/Pages/FluidStructureInteractionView.py,
	  gui/Pages/GasCombustionModel.py, gui/Pages/HeadLossesModel.py,
	  gui/Pages/HeadLossesView.py, gui/Pages/IdentityAndPathesView.py,
	  gui/Pages/InitializationModel.py,
	  gui/Pages/InitializationView.py,
	  gui/Pages/LagrangianBoundariesModel.py,
	  gui/Pages/LagrangianBoundariesView.py,
	  gui/Pages/LagrangianModel.py, gui/Pages/LagrangianOutputModel.py,
	  gui/Pages/LagrangianOutputView.py,
	  gui/Pages/LagrangianStatisticsModel.py,
	  gui/Pages/LagrangianStatisticsView.py,
	  gui/Pages/LagrangianView.py, gui/Pages/LocalizationModel.py,
	  gui/Pages/MatisseCustomView.py, gui/Pages/MatisseGeomModel.py,
	  gui/Pages/MatisseGeomView.py, gui/Pages/MatisseHydrauModel.py,
	  gui/Pages/MatisseHydrauView.py, gui/Pages/MatisseModel.py,
	  gui/Pages/MatisseNetworkModel.py,
	  gui/Pages/MatisseNetworkView.py,
	  gui/Pages/MatisseRangeDescriptionModel.py,
	  gui/Pages/MatisseRangeDescriptionView.py,
	  gui/Pages/MatisseThermicModel.py,
	  gui/Pages/MatisseThermicView.py, gui/Pages/MatisseTypeModel.py,
	  gui/Pages/MatisseTypeView.py, gui/Pages/MemoryAllocationModel.py,
	  gui/Pages/MemoryAllocationView.py, gui/Pages/MobileMeshModel.py,
	  gui/Pages/MobileMeshView.py,
	  gui/Pages/NumericalParamEquationModel.py,
	  gui/Pages/NumericalParamEquationView.py,
	  gui/Pages/NumericalParamGlobalModel.py,
	  gui/Pages/NumericalParamGlobalView.py,
	  gui/Pages/OutputControlModel.py, gui/Pages/OutputControlView.py,
	  gui/Pages/OutputSurfacicVariablesModel.py,
	  gui/Pages/OutputVolumicVariablesView.py,
	  gui/Pages/PreProcessingInformationsView.py,
	  gui/Pages/QMeiEditorView.py, gui/Pages/ReferenceValuesModel.py,
	  gui/Pages/ReferenceValuesView.py,
	  gui/Pages/SolutionDomainModel.py,
	  gui/Pages/SolutionDomainView.py, gui/Pages/SolutionVerifView.py,
	  gui/Pages/StartRestartModel.py, gui/Pages/StartRestartView.py,
	  gui/Pages/SteadyManagementModel.py,
	  gui/Pages/SteadyManagementView.py,
	  gui/Pages/ThermalRadiationModel.py,
	  gui/Pages/ThermalRadiationView.py,
	  gui/Pages/ThermalScalarView.py, gui/Pages/TimeStepModel.py,
	  gui/Pages/TimeStepView.py, gui/Pages/UserArraysModel.py,
	  gui/Pages/UserArraysView.py,
	  gui/Pages/UserScalarPropertiesView.py,
	  gui/Pages/VerifyExistenceLabelDialogView.py,
	  gui/Pages/WelcomeView.py, gui/Pages/__init__.py,
	  gui/sbin/mkpyqt.py, gui/sbin/unittests.py, sbin/rmb: Update the
	  "remove trailing blanks and tabs" script, so that it handles the
	  Python interface files and the different runcase scripts. Run it
	  once for every file.

2009-12-18 09:51  Code_Saturne development team <saturne-support@edf.fr>

	* [r1109] ChangeLog, gui/Pages/OutputControlModel.py,
	  gui/Pages/SolutionVerifView.py: Minor modifications for GUI
	  integration in the SALOME platform.

2009-12-16 16:18  Code_Saturne development team <saturne-support@edf.fr>

	* [r1108] ChangeLog, config/cs_blas.m4: Fix a bug in BLAS
	  detection, introduced with latest improvement.

2009-12-16 10:47  Code_Saturne development team <saturne-support@edf.fr>

	* [r1107] ChangeLog, include/base/cs_join.h,
	  include/base/cs_join_util.h, src/base/cs_join.c,
	  src/base/cs_join_f2c.f90, src/base/cs_join_util.c,
	  users/base/usjoin.f90: Add a counter for the numbering of the
	  joinings.

2009-12-16 10:39  Code_Saturne development team <saturne-support@edf.fr>

	* [r1106] ChangeLog, gui/Pages/DefineUserScalarsView.py,
	  gui/Pages/FacesSelectionView.py,
	  gui/Pages/OutputVolumicVariablesView.py: Change some regular
	  expressions for syntax checking in the interface according to
	  what is done in MEI.

2009-12-15 11:37  Code_Saturne development team <saturne-support@edf.fr>

	* [r1105] ChangeLog, gui/Base/Toolbox.py,
	  gui/Base/XMLinitialize.py, gui/Pages/Boundary.py,
	  gui/Pages/DefineUserScalarsModel.py,
	  gui/Pages/FluidCharacteristicsModel.py,
	  gui/Pages/InitializationModel.py,
	  gui/Pages/NumericalParamEquationModel.py,
	  gui/Pages/OutputVolumicVariablesModel.py,
	  gui/Pages/ThermalScalarModel.py, gui/Pages/TurbulenceModel.py:
	  Remove hyphens and dots from variable names.

2009-12-14 09:51  Code_Saturne development team <saturne-support@edf.fr>

	* [r1104] ChangeLog, src/cfbl/cfprop.f90, src/cogz/coini1.f90,
	  users/base/usini1.f90, users/cogz/uslwc1.f90: Translation of most
	  of the variables names.

2009-12-14 09:46  Code_Saturne development team <saturne-support@edf.fr>

	* [r1103] ChangeLog, users/base/ussmag.f90: Fix a wrong list of
	  arguments for cfiltr subroutine.

2009-12-14 09:40  Code_Saturne development team <saturne-support@edf.fr>

	* [r1102] ChangeLog, bin/cs_case.py, bin/runcase.py.in: Improve the
	  Python runcase script for BG runs.

2009-12-14 09:35  Code_Saturne development team <saturne-support@edf.fr>

	* [r1101] ChangeLog, include/base/cs_join.h,
	  include/base/cs_join_intersect.h, include/base/cs_join_mesh.h,
	  include/base/cs_join_util.h, src/base/cs_join.c,
	  src/base/cs_join_f2c.f90, src/base/cs_join_intersect.c,
	  src/base/cs_join_merge.c, src/base/cs_join_mesh.c,
	  src/base/cs_join_post.c, src/base/cs_join_set.c,
	  src/base/cs_join_split.c, src/base/cs_join_update.c,
	  src/base/cs_join_util.c, users/base/usjoin.f90: Improve the
	  parallel joining algorithm.

2009-12-09 18:47  Code_Saturne development team <saturne-support@edf.fr>

	* [r1100] ChangeLog, Makefile.am, bin/SaturneGUI.in,
	  bin/code_saturne.in[CPY], bin/cs.in[DEL], bin/runcase.in,
	  bin/runcase_syrthes, doc/refcard/refcard.tex,
	  extras/bash_completion/code_saturne: Rename the main script in
	  code_saturne to avoid a conflict with the cs executable of csound
	  package.

2009-12-08 19:47  Code_Saturne development team <saturne-support@edf.fr>

	* [r1099] ChangeLog, config/cs_bft.m4, config/cs_blas.m4,
	  config/cs_fvm.m4, config/cs_libxml2.m4, config/cs_mei.m4,
	  config/cs_mpi.m4: Change the behaviour of the pre-requisites
	  detection by adding a check option. When a package is requested,
	  exit with an error if the package is not found.

2009-12-03 18:23  Code_Saturne development team <saturne-support@edf.fr>

	* [r1098] ChangeLog, Makefile.am, bin/cs_create.py,
	  data/thch/meteo: Add a meteo data file example.

2009-11-25 19:20  Code_Saturne development team <saturne-support@edf.fr>

	* [r1097] ChangeLog, extras/installer/install_saturne.py: Update
	  Code_Saturne installer according to the previous commit.

2009-11-25 19:12  Code_Saturne development team <saturne-support@edf.fr>

	* [r1096] ChangeLog, config/cs_bft.m4, config/cs_blas.m4,
	  config/cs_fvm.m4, config/cs_libxml2.m4, config/cs_mei.m4,
	  config/cs_mpi.m4: Improve package detection handling during
	  configure stage.

2009-11-25 11:19  Code_Saturne development team <saturne-support@edf.fr>

	* [r1095] ChangeLog, src/base/cs_syr4_coupling.c: Fix a wrong size
	  allocation in SYRTHES 4 coupling.

2009-11-24 15:43  Code_Saturne development team <saturne-support@edf.fr>

	* [r1094] ChangeLog, config/cs_blas.m4: Fix a bug in BLAS detection
	  when both C and Fortran symbols are present in the legacy BLAS
	  library.

2009-11-18 16:21  Code_Saturne development team <saturne-support@edf.fr>

	* [r1093] ChangeLog, include/base/cstphy.h, src/base/viswal.f90:
	  Fix several issues with the WALE model.

2009-11-18 15:29  Code_Saturne development team <saturne-support@edf.fr>

	* [r1092] ChangeLog, gui/Pages/SolutionDomainModel.py: Small
	  correction when displaying I-deas file format.

2009-11-18 15:20  Code_Saturne development team <saturne-support@edf.fr>

	* [r1091] ChangeLog, gui/Pages/SolutionVerifView.py,
	  users/base/usini1.f90: Fix issues in the check_mesh tool (GUI)
	  with CGNS and MED format.

2009-11-18 13:48  Code_Saturne development team <saturne-support@edf.fr>

	* [r1090] ChangeLog, data/thch/dp_ELE: Update the dp_ELE file
	  (Argon properties) to account for radiative transfer.

2009-11-18 11:33  Code_Saturne development team <saturne-support@edf.fr>

	* [r1089] ChangeLog, gui/Pages/LagrangianBoundariesModel.py,
	  gui/Pages/LagrangianBoundariesView.py: Fix the statistical weight
	  parameter issue in GUI for Lagrangian setup.

2009-11-18 11:09  Code_Saturne development team <saturne-support@edf.fr>

	* [r1088] ChangeLog, gui/Pages/CoalThermoChemistry.py: Fix a bug
	  when reading/writing dp_FCP thermochemistry file in GUI.

2009-11-18 10:59  Code_Saturne development team <saturne-support@edf.fr>

	* [r1087] ChangeLog, src/base/cs_gui_boundary_conditions.c: Fix the
	  velocity computation when setting up a mass flow rate.

2009-11-17 18:34  Code_Saturne development team <saturne-support@edf.fr>

	* [r1086] ChangeLog, gui/Pages/FluidStructureInteractionModel.py,
	  gui/Pages/InitializationModel.py: Minor modifications.

2009-11-17 18:32  Code_Saturne development team <saturne-support@edf.fr>

	* [r1085] ChangeLog: Enable again the post-processing of SYRTHES
	  coupling faces.

2009-11-17 18:30  Code_Saturne development team <saturne-support@edf.fr>

	* [r1084] ChangeLog, gui/Pages/BatchRunningModel.py,
	  gui/Pages/ConjugateHeatTransferModel.py,
	  gui/Pages/OutputControlView.py: Don't automatically set the
	  number of processors to 1 in runcase anymore.

2009-11-17 18:24  Code_Saturne development team <saturne-support@edf.fr>

	* [r1083] gui/Pages/SolutionVerifView.py: Remove spurious debug
	  output.

2009-11-17 18:20  Code_Saturne development team <saturne-support@edf.fr>

	* [r1082] ChangeLog, gui/Base/BrowserView.py, gui/Base/MainView.py,
	  gui/Pages/BatchRunningView.py, gui/Pages/SalomeHandler.py,
	  gui/Pages/SolutionDomainView.py, gui/Pages/SolutionVerifView.py:
	  Fix some potential issues in the check_mesh feature and SALOME
	  porting.

2009-11-17 16:57  Code_Saturne development team <saturne-support@edf.fr>

	* [r1081] ChangeLog, src/apps/Makefile.am: Add LTLIBINTL to
	  cs_solver dependency for linking with libintl library needed for
	  gettext support on systems with a libc different from the glibc.

2009-11-17 16:07  Code_Saturne development team <saturne-support@edf.fr>

	* [r1080] ChangeLog, config/cs_auto_flags.sh: Change the order of
	  some libraries to link with on BG/P systems.

2009-11-05 12:07  Code_Saturne development team <saturne-support@edf.fr>

	* [r1079] ChangeLog, Makefile.am, doc/manpages/cs.1,
	  doc/manpages/cs_check_consistency.1[DEL],
	  doc/manpages/cs_check_mesh.1[DEL],
	  doc/manpages/cs_compile.1[DEL], doc/manpages/cs_create.1[DEL],
	  doc/manpages/cs_info.1[DEL], doc/manpages/cs_plot_probes.1[DEL]:
	  Merge the user scripts manpages into a single one for the cs
	  script.

2009-11-05 11:29  Code_Saturne development team <saturne-support@edf.fr>

	* [r1078] ChangeLog, bin/cs.in, bin/cs_compile.py: Small fixes
	  related to user scripts (lib64 rpath detection and distutils
	  module not present).

2009-11-05 11:24  Code_Saturne development team <saturne-support@edf.fr>

	* [r1077] ChangeLog, config/cs_blas.m4: Fix some issues in BLAS
	  detection (Intel MKL especially).

2009-11-05 11:18  Code_Saturne development team <saturne-support@edf.fr>

	* [r1076] ChangeLog, config/cs_auto_flags.sh: Different fixes for
	  PGI compilers support.

2009-11-04 17:54  Code_Saturne development team <saturne-support@edf.fr>

	* [r1075] ChangeLog, gui/Base/BrowserView.py, gui/Base/Toolbox.py,
	  gui/Base/XMLinitialize.py, gui/Pages/HeadLossesForm.ui,
	  gui/Pages/HeadLossesModel.py, gui/Pages/HeadLossesView.py,
	  gui/Pages/LocalizationModel.py, gui/Pages/LocalizationView.py,
	  include/base/cs_gui.h, src/base/caltri.f90, src/base/cs_gui.c,
	  src/base/tridim.f90: Add head loss setup in the graphical user
	  interface.

2009-11-04 17:34  Code_Saturne development team <saturne-support@edf.fr>

	* [r1074] ChangeLog, bin/runcase.in: Force 'bash' shell as 'sh' can
	  be more minimalist one (like on Ubuntu systems where it is
	  'dash') and we are using bashism.

2009-11-04 17:02  Code_Saturne development team <saturne-support@edf.fr>

	* [r1073] ChangeLog, bin/runcase.in, gui/Base/Toolbox.py,
	  gui/Pages/BatchRunningModel.py, gui/Pages/FacesSelectionView.py,
	  gui/Pages/Makefile.am, gui/Pages/OutputControlView.py,
	  gui/Pages/SolutionDomainModel.py, gui/Pages/SyrthesForm.ui[DEL],
	  gui/Pages/SyrthesView.py[DEL],
	  src/base/cs_gui_conjugate_heat_transfer.c: Finalize the
	  implementation of SYRTHES coupling setup via the GUI.

2009-10-30 18:03  Code_Saturne development team <saturne-support@edf.fr>

	* [r1072] ChangeLog, gui/Base/BrowserView.py, gui/Base/Toolbox.py,
	  gui/Pages/CoalCombustionModel.py,
	  gui/Pages/ConjugateHeatTransferForm.ui,
	  gui/Pages/ConjugateHeatTransferModel.py,
	  gui/Pages/ConjugateHeatTransferView.py, gui/Pages/Makefile.am,
	  gui/Pages/ThermalScalarModel.py,
	  include/base/cs_gui_conjugate_heat_transfer.h,
	  src/base/Makefile.am, src/base/cs_gui_conjugate_heat_transfer.c,
	  src/base/initi1.f90: First implementation of the SYRTHES coupling
	  with a GUI setup. This functionality is not complete yet, the
	  script has to be adapted and the XML reader corrected.

2009-10-30 16:47  Code_Saturne development team <saturne-support@edf.fr>

	* [r1071] ChangeLog, users/base/uskpdc.f90, users/base/ustsma.f90,
	  users/base/usvort.f90: Add return statement so that the user
	  subroutine are not executed.

2009-10-30 15:31  Code_Saturne development team <saturne-support@edf.fr>

	* [r1070] ChangeLog, gui/cs_gui.py: Minor correction in the GUI
	  launcher module.

2009-10-30 15:28  Code_Saturne development team <saturne-support@edf.fr>

	* [r1069] ChangeLog, gui/Pages/AtmosphericFlowsModel.py,
	  gui/Pages/ReferenceValuesModel.py,
	  gui/Pages/ReferenceValuesView.py,
	  gui/Pages/SolutionDomainView.py: Improve the support for
	  atmospheric flow modelling in the GUI.*

2009-10-30 15:17  Code_Saturne development team <saturne-support@edf.fr>

	* [r1068] ChangeLog, src/atmo/atini1.f90, src/atmo/atiniv.f90:
	  Improvement in the atmospheric module initialization.

2009-10-30 14:51  Code_Saturne development team <saturne-support@edf.fr>

	* [r1067] ChangeLog, src/base/cs_gui_boundary_conditions.c: Fix a
	  bug introduced in a previous commit.

2009-10-30 14:43  Code_Saturne development team <saturne-support@edf.fr>

	* [r1066] ChangeLog, src/base/strdep.f90: Fix a wrong array
	  indirection where ra was used instead of ia.

2009-10-26 18:27  Code_Saturne development team <saturne-support@edf.fr>

	* [r1065] ChangeLog, src/atmo/atini1.f90, src/atmo/atlecm.f90,
	  src/atmo/atmcls.f90, src/atmo/atprke.f90, src/base/clptrg.f90,
	  src/base/cs_gui_boundary_conditions.c, src/base/vericl.f90,
	  users/atmo/usatcl.f90: Fix some bugs in the atmospheric flows
	  module. Change the setup of the thermal roughness, now defined in
	  rcodcl(ifac,iv(iphas,3).

2009-10-26 15:49  Code_Saturne development team <saturne-support@edf.fr>

	* [r1064] ChangeLog, extras/installer/install_saturne.py: Fix a
	  minor issue in MED installation parameters.

2009-10-26 15:45  Code_Saturne development team <saturne-support@edf.fr>

	* [r1063] ChangeLog, gui/Pages/LagrangianBoundariesModel.py,
	  gui/Pages/LagrangianBoundariesView.py: Fix some issues as regards
	  the Lagrangian setup in the GUI.

2009-10-21 17:26  Code_Saturne development team <saturne-support@edf.fr>

	* [r1062] ChangeLog, src/base/crstgr.f90, src/base/iniini.f90: Set
	  the relaxation factor between P0/P1 interpolations to 0.95 in
	  multigrid algorithm in order to stabilize the algorithm in some
	  calculations.

2009-10-21 16:59  Code_Saturne development team <saturne-support@edf.fr>

	* [r1061] ChangeLog, gui/Base/BrowserView.py: Fix a bug introduce
	  previously (time-step page no more available).

2009-10-20 17:30  Code_Saturne development team <saturne-support@edf.fr>

	* [r1060] ChangeLog, src/pprt/ppcabs.f90: Fix a missing sum over
	  the processor for an error indicator.

2009-10-20 17:14  Code_Saturne development team <saturne-support@edf.fr>

	* [r1059] ChangeLog, src/base/varpos.f90: Fix a shift in the
	  definition of post-processing pointer for luminance resulting in
	  having the time-step instead of the luminance.

2009-10-19 16:13  Code_Saturne development team <saturne-support@edf.fr>

	* [r1058] ChangeLog, gui/Pages/ThermalRadiationModel.py,
	  src/rayt/raydom.f90, src/rayt/raysca.f90: Move explicit source
	  correction in raysca for a correct post-processing. This is
	  allowed since combustion modelling always uses enthalpy.
	  Correction in the GUI part in addition.

2009-10-19 15:38  Code_Saturne development team <saturne-support@edf.fr>

	* [r1057] ChangeLog, src/base/cs_mesh_quantities.c: Minor
	  modification on a test when not enough data are available.

2009-10-19 14:40  Code_Saturne development team <saturne-support@edf.fr>

	* [r1056] ChangeLog, include/base/cs_preprocessor_data.h,
	  src/base/cs_post.c, src/base/ecrhis.f90, users/base/usclim.f90,
	  users/base/usjoin.f90, users/base/usproj.f90: Cosmetic
	  modifications.

2009-10-19 14:27  Code_Saturne development team <saturne-support@edf.fr>

	* [r1055] ChangeLog, src/base/iniini.f90: Set the agglomeration
	  limit to 3 instead of 8.

2009-10-19 14:20  Code_Saturne development team <saturne-support@edf.fr>

	* [r1054] ChangeLog, src/apps/cs_solver.c: Disable FPE handling
	  also on BlueGene systems.

2009-10-19 14:17  Code_Saturne development team <saturne-support@edf.fr>

	* [r1053] ChangeLog, extras/installer, extras/installer/README.txt,
	  extras/installer/install_saturne.py, extras/installer/setup: Add
	  Code_Saturne installer in the extras directory.

2009-10-19 13:47  Code_Saturne development team <saturne-support@edf.fr>

	* [r1052] users/base/ussatc.f90: Revert old spurious commit.

2009-10-19 13:33  Code_Saturne development team <saturne-support@edf.fr>

	* [r1051] ChangeLog, gui/Base/BrowserView.py,
	  gui/Pages/OutputVolumicVariablesView.py,
	  gui/Pages/SteadyManagementModel.py, gui/Pages/TimeStepModel.py,
	  include/base/cs_gui.h, src/base/cs_gui.c, src/base/iniusi.f90,
	  src/base/inivar.f90: Have a consistent behaviour of
	  post-processing option depending on the time-step scheme.

2009-10-19 13:09  Code_Saturne development team <saturne-support@edf.fr>

	* [r1050] ChangeLog, src/base/cs_mesh_halo.c: Add a sanity check
	  for interior faces -> cells connectivity.

2009-10-19 10:22  Code_Saturne development team <saturne-support@edf.fr>

	* [r1049] ChangeLog, src/base/cs_join_intersect.c,
	  src/base/cs_join_merge.c, src/base/cs_join_mesh.c,
	  src/base/cs_join_split.c, src/base/cs_join_update.c: Fix a freeze
	  that could happen in the joining algorithm when no face is
	  present after the slice redistribution.

2009-10-19 10:04  Code_Saturne development team <saturne-support@edf.fr>

	* [r1048] ChangeLog, include/base/cs_join_util.h,
	  src/base/cs_join_util.c: Fix an issue with the joining algorithm
	  where not all the single vertices are detected during the
	  selection step.

2009-10-19 09:46  Code_Saturne development team <saturne-support@edf.fr>

	* [r1047] ChangeLog, include/base/cs_mesh_quantities.h: Add missing
	  header modification in previous commit.

2009-10-16 16:04  Code_Saturne development team <saturne-support@edf.fr>

	* [r1046] ChangeLog, src/apps/cs_solver.c,
	  src/base/cs_mesh_quantities.c: Add a verification for negative
	  volume.

2009-10-16 15:47  Code_Saturne development team <saturne-support@edf.fr>

	* [r1045] ChangeLog, src/base/cs_mesh_quality.c: Fix a wrong
	  initialization in mesh quality display when the array is empty.

2009-10-16 15:43  Code_Saturne development team <saturne-support@edf.fr>

	* [r1044] ChangeLog, src/base/cs_join_merge.c: Fix a bug in the
	  joining algorithm when the number of faces is lower than the
	  number of ranks.

2009-10-16 15:33  Code_Saturne development team <saturne-support@edf.fr>

	* [r1043] ChangeLog, src/atmo/mematm.f90: Replace fake variable by
	  a fake array for consistency.

2009-10-16 15:31  Code_Saturne development team <saturne-support@edf.fr>

	* [r1042] ChangeLog, src/rayt/raypun.f90: Disable multigrid
	  algorithm for P1 model (radiative transfer).

2009-10-08 07:32  Code_Saturne development team <saturne-support@edf.fr>

	* [r1041] ChangeLog, gui/Pages/StartRestartView.py: Improve GUI
	  behaviour for a RESTART directory is already present.

2009-10-07 09:47  Code_Saturne development team <saturne-support@edf.fr>

	* [r1040] ChangeLog, gui/Pages/InitializationView.py,
	  gui/Pages/LocalizationView.py, include/base/cs_gui.h,
	  src/base/cs_gui.c, src/base/inivar.f90: Fix a bug in the scalar
	  initialization if the user adds a new scalar during a restarting
	  calculation.

2009-10-07 09:27  Code_Saturne development team <saturne-support@edf.fr>

	* [r1039] ChangeLog, gui/Pages/ProfilesView.py: Improvement in the
	  profiles management in GUI.

2009-10-06 16:51  Code_Saturne development team <saturne-support@edf.fr>

	* [r1038] ChangeLog, configure.ac, src/base/cs_io.c,
	  src/base/cs_preprocessor_data.c, src/base/cs_restart.c: Upgrade
	  to FVM 0.15.0

2009-10-01 12:43  Code_Saturne development team <saturne-support@edf.fr>

	* [r1037] ChangeLog, gui/Base/QtPage.py,
	  gui/Pages/OutputVolumicVariablesModel.py,
	  gui/Pages/ProfilesModel.py, gui/Pages/StartRestartModel.py,
	  gui/Pages/TimeAveragesForm.ui, gui/Pages/TimeAveragesModel.py,
	  gui/Pages/TimeAveragesView.py, src/base/cs_gui.c: Fix a numbering
	  issue for time averages in GUI. Add the choice for a different
	  average number in case of restart.

2009-10-01 12:30  Code_Saturne development team <saturne-support@edf.fr>

	* [r1036] ChangeLog, include/atmo/atincl.h, include/base/alaste.h,
	  include/base/albase.h, include/base/alstru.h,
	  include/base/cplsat.h, include/base/cs_ale.h,
	  include/base/cs_ast_coupling.h, include/base/cs_base.h,
	  include/base/cs_benchmark.h, include/base/cs_blas.h,
	  include/base/cs_calcium.h, include/base/cs_coupling.h,
	  include/base/cs_ext_neighborhood.h, include/base/cs_gradient.h,
	  include/base/cs_io.h, include/base/cs_matrix.h,
	  include/base/cs_mesh_coherency.h, include/base/cs_mesh_connect.h,
	  include/base/cs_mesh_halo.h, include/base/cs_mesh_quality.h,
	  include/base/cs_mesh_warping.h, include/base/cs_multigrid.h,
	  include/base/cs_parall.h, include/base/cs_perio.h,
	  include/base/cs_preprocessor_data.h,
	  include/base/cs_proxy_comm.h, include/base/cs_renumber.h,
	  include/base/cs_sat_coupling.h, include/base/cs_selector.h,
	  include/base/cs_sles.h, include/base/cs_syr3_comm.h,
	  include/base/cs_syr3_coupling.h, include/base/cs_syr3_messages.h,
	  include/base/cs_syr4_coupling.h, include/base/cs_syr_coupling.h,
	  include/base/cs_tpar1d.h, include/base/cs_ventil.h,
	  include/base/cstnum.h, include/base/cstphy.h,
	  include/base/dimens.h, include/base/dimfbr.h,
	  include/base/entsor.h, include/base/ihmpre.h,
	  include/base/mltgrd.h, include/base/numvar.h,
	  include/base/optcal.h, include/base/period.h,
	  include/base/pointe.h, include/base/tcpumx.h,
	  include/base/tremai.h, include/base/vector.h,
	  include/base/vortex.h, include/cfbl/cfpoin.h,
	  include/cogz/coincl.h, include/cplv/cpincl.h,
	  include/ctwr/cs_ctwr.h, include/ctwr/cs_ctwr_air_props.h,
	  include/ctwr/cs_ctwr_halo.h, include/ctwr/cs_ctwr_mesh.h,
	  include/ctwr/ctincl.h, include/elec/elincl.h,
	  include/fuel/fuincl.h, include/lagr/cs_lagr.h,
	  include/lagr/cs_lagr_perio.h, include/lagr/lagdim.h,
	  include/lagr/lagpar.h, include/lagr/lagran.h,
	  include/mati/matiss.h, include/pprt/ppcpfu.h,
	  include/pprt/ppincl.h, include/pprt/ppppar.h,
	  include/pprt/ppthch.h, include/rayt/radiat.h,
	  src/atmo/atini1.f90, src/atmo/atiniv.f90, src/atmo/atlecm.f90,
	  src/atmo/attycl.f90, src/atmo/atvarp.f90, src/atmo/intprf.f90,
	  src/atmo/mematm.f90, src/base/alelap.f90, src/base/alemaj.f90,
	  src/base/altycl.f90, src/base/armtps.f90, src/base/autmgr.f90,
	  src/base/bilsc2.f90, src/base/calgeo.f90, src/base/calhyd.f90,
	  src/base/calmom.f90, src/base/caltri.f90, src/base/catsma.f90,
	  src/base/causta.f90, src/base/clca66.f90, src/base/cldijp.f90,
	  src/base/cldipo.f90, src/base/clipke.f90, src/base/clprij.f90,
	  src/base/clpsca.f90, src/base/clptrg.f90, src/base/clptur.f90,
	  src/base/clpv2f.f90, src/base/clsurn.f90, src/base/clsyvt.f90,
	  src/base/clvolc.f90, src/base/codits.f90, src/base/condli.f90,
	  src/base/cou1di.f90, src/base/cou1do.f90, src/base/coupbi.f90,
	  src/base/coupbo.f90, src/base/covofi.f90, src/base/cregeo.f90,
	  src/base/cs_ale.c, src/base/cs_ast_coupling.c,
	  src/base/cs_base.c, src/base/cs_benchmark.c, src/base/cs_blas.c,
	  src/base/cs_coupling.c, src/base/cs_gradient.c,
	  src/base/cs_gui_matisse.c, src/base/cs_gui_radiative_transfer.c,
	  src/base/cs_gui_util.c, src/base/cs_io.c,
	  src/base/cs_join_f2c.f90, src/base/cs_mesh_coherency.c,
	  src/base/cs_mesh_connect.c, src/base/cs_mesh_halo.c,
	  src/base/cs_parall.c, src/base/cs_perio.c,
	  src/base/cs_post_f2c.f90, src/base/cs_proxy_comm.c,
	  src/base/cs_sat_coupling.c, src/base/cs_selector.c,
	  src/base/cs_selector_f2c.f90, src/base/cs_syr3_comm.c,
	  src/base/cs_syr3_messages.c, src/base/cs_syr_coupling.c,
	  src/base/cs_syr_f2c.f90, src/base/cs_ventil.c,
	  src/base/csc2cl.f90, src/base/csc2ts.f90, src/base/csccel.f90,
	  src/base/cscfbr.f90, src/base/cscini.f90, src/base/csclli.f90,
	  src/base/cscloc.f90, src/base/cscpce.f90, src/base/cscpfb.f90,
	  src/base/csflsh.f90, src/base/csinit.f90, src/base/csprnt.f90,
	  src/base/distpr.f90, src/base/distyp.f90, src/base/divmas.f90,
	  src/base/divrij.f90, src/base/dttvar.f90, src/base/dvvpst.f90,
	  src/base/ecrava.f90, src/base/ecrhis.f90, src/base/ecrlis.f90,
	  src/base/findpt.f90, src/base/gradmc.f90, src/base/gradrc.f90,
	  src/base/grdcel.f90, src/base/haltyp.f90, src/base/hturbp.f90,
	  src/base/idrbla.f90, src/base/impini.f90, src/base/iniini.f90,
	  src/base/inimas.f90, src/base/inipst.f90, src/base/initi1.f90,
	  src/base/initi2.f90, src/base/iniusi.f90, src/base/iniva0.f90,
	  src/base/inivar.f90, src/base/invers.f90, src/base/iprbla.f90,
	  src/base/itrgrp.f90, src/base/itrmas.f90, src/base/lecamo.f90,
	  src/base/lecamp.f90, src/base/lecamx.f90, src/base/ledgeo.f90,
	  src/base/letgeo.f90, src/base/majgeo.f90, src/base/matrdt.f90,
	  src/base/matrix.f90, src/base/memale.f90, src/base/memcbr.f90,
	  src/base/memclg.f90, src/base/memcli.f90, src/base/memcs1.f90,
	  src/base/memcs2.f90, src/base/memdis.f90, src/base/memdtv.f90,
	  src/base/memdyp.f90, src/base/memini.f90, src/base/memkep.f90,
	  src/base/memkom.f90, src/base/memnav.f90, src/base/mempdc.f90,
	  src/base/memphy.f90, src/base/memrij.f90, src/base/memsca.f90,
	  src/base/memt1d.f90, src/base/memtri.f90, src/base/memtsm.f90,
	  src/base/memv2f.f90, src/base/memvor.f90, src/base/modini.f90,
	  src/base/modpar.f90, src/base/navsto.f90, src/base/newmrk.f90,
	  src/base/numvec.f90, src/base/ordita.f90, src/base/pergra.f90,
	  src/base/perinr.f90, src/base/perinu.f90, src/base/phyvar.f90,
	  src/base/precli.f90, src/base/preduv.f90, src/base/prmoy0.f90,
	  src/base/prods2.f90, src/base/prods3.f90, src/base/prodsc.f90,
	  src/base/projts.f90, src/base/promav.f90, src/base/proxav.f90,
	  src/base/recvmc.f90, src/base/reseps.f90, src/base/resolp.f90,
	  src/base/resrij.f90, src/base/resssg.f90, src/base/resv2f.f90,
	  src/base/rijech.f90, src/base/rijthe.f90, src/base/scalai.f90,
	  src/base/schtmp.f90, src/base/stdtcl.f90, src/base/strdep.f90,
	  src/base/strhis.f90, src/base/strini.f90, src/base/strpre.f90,
	  src/base/tcpumx.c, src/base/tdesi1.f90, src/base/testel.f90,
	  src/base/tremai.c, src/base/tridim.f90, src/base/tsepdc.f90,
	  src/base/tstvec.f90, src/base/turbke.f90, src/base/turbkw.f90,
	  src/base/turent.f90, src/base/turrij.f90, src/base/typecl.f90,
	  src/base/undscr.f90, src/base/vandri.f90, src/base/varpos.f90,
	  src/base/vectds.f90, src/base/vericl.f90, src/base/verini.f90,
	  src/base/verlon.f90, src/base/vert1d.f90, src/base/viscfa.f90,
	  src/base/visdyn.f90, src/base/vislmg.f90, src/base/visort.f90,
	  src/base/vissec.f90, src/base/vissma.f90, src/base/vissst.f90,
	  src/base/vor2cl.f90, src/base/vordep.f90, src/base/vorimp.f90,
	  src/base/vorin0.f90, src/base/vorini.f90, src/base/vorlgv.f90,
	  src/base/vorpre.f90, src/base/vortex.f90, src/base/vorver.f90,
	  src/base/vorvit.f90, src/base/zufall.f90, src/cfbl/cfbsc2.f90,
	  src/cfbl/cfbsc3.f90, src/cfbl/cfcdts.f90, src/cfbl/cfdivs.f90,
	  src/cfbl/cfdttv.f90, src/cfbl/cfener.f90, src/cfbl/cfini1.f90,
	  src/cfbl/cfiniv.f90, src/cfbl/cfmsfl.f90, src/cfbl/cfmsgs.f90,
	  src/cfbl/cfmsvl.f90, src/cfbl/cfmsvs.f90, src/cfbl/cfphyv.f90,
	  src/cfbl/cfprop.f90, src/cfbl/cfqdmv.f90, src/cfbl/cfrusb.f90,
	  src/cfbl/cfvarp.f90, src/cfbl/cfxtcl.f90, src/cfbl/memcfe.f90,
	  src/cfbl/memcfm.f90, src/cfbl/memcft.f90, src/cfbl/memcfv.f90,
	  src/cogz/coini1.f90, src/cogz/colecd.f90, src/cogz/coprop.f90,
	  src/cogz/cothht.f90, src/cogz/covarp.f90, src/cogz/d3phst.f90,
	  src/cogz/d3pini.f90, src/cogz/d3pint.f90, src/cogz/d3pphy.f90,
	  src/cogz/d3ptcl.f90, src/cogz/d3pver.f90, src/cogz/ebuini.f90,
	  src/cogz/ebuphy.f90, src/cogz/ebutcl.f90, src/cogz/ebutss.f90,
	  src/cogz/ebuver.f90, src/cogz/lwcgfu.f90, src/cogz/lwcini.f90,
	  src/cogz/lwcphy.f90, src/cogz/lwctcl.f90, src/cogz/lwctss.f90,
	  src/cogz/lwcurl.f90, src/cogz/lwcver.f90, src/cogz/pdflwc.f90,
	  src/cogz/pdfpp3.f90, src/cogz/pdfpp4.f90, src/cplv/cpcym2.f90,
	  src/cplv/cpflux.f90, src/cplv/cpini1.f90, src/cplv/cpiniv.f90,
	  src/cplv/cplecd.f90, src/cplv/cplin1.f90, src/cplv/cplini.f90,
	  src/cplv/cplph1.f90, src/cplv/cplphy.f90, src/cplv/cplpro.f90,
	  src/cplv/cpltcl.f90, src/cplv/cpltss.f90, src/cplv/cpltsv.f90,
	  src/cplv/cplvar.f90, src/cplv/cplver.f90, src/cplv/cplym1.f90,
	  src/cplv/cppdf4.f90, src/cplv/cppdfr.f90, src/cplv/cpphy1.f90,
	  src/cplv/cpphy2.f90, src/cplv/cpphyv.f90, src/cplv/cpprop.f90,
	  src/cplv/cpptcl.f90, src/cplv/cprays.f90, src/cplv/cpteh1.f90,
	  src/cplv/cpteh2.f90, src/cplv/cptehm.f90, src/cplv/cpthp1.f90,
	  src/cplv/cpthp2.f90, src/cplv/cptssc.f90, src/cplv/cptsvc.f90,
	  src/cplv/cptsvi.f90, src/cplv/cpvarp.f90, src/cplv/cpveri.f90,
	  src/cplv/memcp1.f90, src/ctwr/cs_ctwr_air_props.c,
	  src/ctwr/cs_ctwr_halo.c, src/ctwr/ctini1.f90,
	  src/ctwr/ctiniv.f90, src/ctwr/ctphyv.f90, src/ctwr/cttssc.f90,
	  src/ctwr/ctvarp.f90, src/elec/elflux.f90, src/elec/elini1.f90,
	  src/elec/eliniv.f90, src/elec/ellecd.f90, src/elec/elphyv.f90,
	  src/elec/elprop.f90, src/elec/elthht.f90, src/elec/eltssc.f90,
	  src/elec/elvarp.f90, src/elec/elveri.f90, src/fuel/fucym1.f90,
	  src/fuel/fucyno.f90, src/fuel/fuflux.f90, src/fuel/fuini1.f90,
	  src/fuel/fuiniv.f90, src/fuel/fulecd.f90, src/fuel/fupdfr.f90,
	  src/fuel/fuphy1.f90, src/fuel/fuphy2.f90, src/fuel/fuphyv.f90,
	  src/fuel/fuprop.f90, src/fuel/fuptcl.f90, src/fuel/furays.f90,
	  src/fuel/futeh1.f90, src/fuel/futeh2.f90, src/fuel/futhp1.f90,
	  src/fuel/futhp2.f90, src/fuel/futssc.f90, src/fuel/futsvc.f90,
	  src/fuel/futsvi.f90, src/fuel/fuvarp.f90, src/fuel/fuveri.f90,
	  src/fuel/memfu1.f90, src/lagr/cs_lagr.c,
	  src/lagr/cs_lagr_perio.c, src/lagr/diverv.f90,
	  src/lagr/enslag.f90, src/lagr/enswaf.f90, src/lagr/lagaff.f90,
	  src/lagr/lagcar.f90, src/lagr/lagcel.f90, src/lagr/lagcou.f90,
	  src/lagr/lagdeb.f90, src/lagr/lageli.f90, src/lagr/lagent.f90,
	  src/lagr/lageqp.f90, src/lagr/lagerr.f90, src/lagr/lages1.f90,
	  src/lagr/lages2.f90, src/lagr/lagesp.f90, src/lagr/lagfch.f90,
	  src/lagr/laggra.f90, src/lagr/laghis.f90, src/lagr/lagich.f90,
	  src/lagr/lagidp.f90, src/lagr/lagimp.f90, src/lagr/lagini.f90,
	  src/lagr/lagipn.f90, src/lagr/lagitf.f90, src/lagr/lagitg.f90,
	  src/lagr/lagitp.f90, src/lagr/laglec.f90, src/lagr/laglis.f90,
	  src/lagr/lagnew.f90, src/lagr/lagnpr.f90, src/lagr/lagnwc.f90,
	  src/lagr/lagopt.f90, src/lagr/lagout.f90, src/lagr/lagphy.f90,
	  src/lagr/lagpoi.f90, src/lagr/lagrus.f90, src/lagr/lagsta.f90,
	  src/lagr/lagstf.f90, src/lagr/lagtri.f90, src/lagr/lagune.f90,
	  src/lagr/memla1.f90, src/lagr/memla2.f90, src/lagr/ouestu.f90,
	  src/mati/memmat.f90, src/mati/mtimpi.f90, src/mati/mtini1.f90,
	  src/mati/mtkpdc.f90, src/mati/mtphyv.f90, src/mati/mtproj.f90,
	  src/mati/mttsns.f90, src/mati/mttssc.f90, src/mati/mttycl.f90,
	  src/pprt/memppt.f90, src/pprt/ppcabs.f90, src/pprt/ppclim.f90,
	  src/pprt/ppcsca.f90, src/pprt/ppini1.f90, src/pprt/ppinii.f90,
	  src/pprt/ppiniv.f90, src/pprt/ppinv2.f90, src/pprt/pplecd.f90,
	  src/pprt/pppdfr.f90, src/pprt/ppphyv.f90, src/pprt/ppprcl.f90,
	  src/pprt/ppprop.f90, src/pprt/ppray4.f90, src/pprt/pptbht.f90,
	  src/pprt/pptssc.f90, src/pprt/pptycl.f90, src/pprt/ppvarp.f90,
	  src/rayt/memra1.f90, src/rayt/memra2.f90, src/rayt/memra3.f90,
	  src/rayt/raycli.f90, src/rayt/raydak.f90, src/rayt/raydir.f90,
	  src/rayt/raydom.f90, src/rayt/raylec.f90, src/rayt/rayopt.f90,
	  src/rayt/rayout.f90, src/rayt/raypar.f90, src/rayt/raypun.f90,
	  src/rayt/raysca.f90, src/rayt/raysol.f90, src/rayt/rmodak.f90,
	  users/atmo/usatcl.f90, users/atmo/usati1.f90,
	  users/atmo/usativ.f90, users/base/usalcl.f90,
	  users/base/usalin.f90, users/base/usaste.f90,
	  users/base/usdpst.f90, users/base/ushist.f90,
	  users/base/usiniv.f90, users/base/uskpdc.f90,
	  users/base/usmodg.f90, users/base/usmpst.f90,
	  users/base/usnpst.f90, users/base/usphyv.f90,
	  users/base/usproj.f90, users/base/uspt1d.f90,
	  users/base/ussatc.f90, users/base/ussmag.f90,
	  users/base/usstru.f90, users/base/ussyrc.f90,
	  users/base/usthht.f90, users/base/ustmgr.f90,
	  users/base/ustske.f90, users/base/ustskw.f90,
	  users/base/ustsma.f90, users/base/ustsns.f90,
	  users/base/ustsri.f90, users/base/ustssc.f90,
	  users/base/ustsv2.f90, users/base/usvima.f90,
	  users/base/usvist.f90, users/base/usvort.f90,
	  users/base/usvpst.f90, users/cfbl/uscfcl.f90,
	  users/cfbl/uscfpv.f90, users/cfbl/uscfth.f90,
	  users/cfbl/uscfx1.f90, users/cfbl/uscfx2.f90,
	  users/cfbl/uscfxi.f90, users/cogz/usd3p1.f90,
	  users/cogz/usd3pc.f90, users/cogz/usd3pi.f90,
	  users/cogz/usebu1.f90, users/cogz/usebuc.f90,
	  users/cogz/usebui.f90, users/cogz/uslwc1.f90,
	  users/cogz/uslwcc.f90, users/cogz/uslwci.f90,
	  users/cplv/uscpcl.f90, users/cplv/uscpi1.f90,
	  users/cplv/uscpiv.f90, users/cplv/uscpl1.f90,
	  users/cplv/uscplc.f90, users/ctwr/usctcl.f90,
	  users/ctwr/usctdz.f90, users/ctwr/uscti1.f90,
	  users/ctwr/usctiv.f90, users/elec/uselcl.f90,
	  users/elec/uselen.f90, users/elec/useli1.f90,
	  users/elec/useliv.f90, users/elec/uselph.f90,
	  users/elec/uselrc.f90, users/elec/usetcl.f90,
	  users/fuel/usfucl.f90, users/fuel/usfui1.f90,
	  users/fuel/usfuiv.f90, users/lagr/uslabo.f90,
	  users/lagr/usladp.f90, users/lagr/uslaed.f90,
	  users/lagr/uslaen.f90, users/lagr/uslafe.f90,
	  users/lagr/uslag1.f90, users/lagr/uslag2.f90,
	  users/lagr/uslain.f90, users/lagr/uslapr.f90,
	  users/lagr/uslaru.f90, users/lagr/uslast.f90,
	  users/lagr/uslatc.f90, users/lagr/uslatp.f90,
	  users/pprt/usppmo.f90, users/rayt/usray1.f90,
	  users/rayt/usray2.f90, users/rayt/usray3.f90,
	  users/rayt/usray4.f90, users/rayt/usray5.f90: Update Copyrights,
	  clean subroutine and function keywords.

2009-10-01 11:42  Code_Saturne development team <saturne-support@edf.fr>

	* [r1035] ChangeLog, doc/user/saturne1.tex: Change remaining
	  keywords in lowercase.

2009-09-30 17:59  Code_Saturne development team <saturne-support@edf.fr>

	* [r1034] ChangeLog, doc/style/csindex.sty, doc/style/csmacros.sty,
	  doc/user/saturne1.tex, doc/user/saturne2.tex: Change all
	  Code_Saturne keywords in lowercase.

2009-09-30 14:33  Code_Saturne development team <saturne-support@edf.fr>

	* [r1033] ChangeLog, src/lagr/laghis.f90: Split two tests that
	  could end in a SIGSEGV when checking array bounds.

2009-09-30 13:54  Code_Saturne development team <saturne-support@edf.fr>

	* [r1032] ChangeLog, src/lagr/lagent.f90, src/lagr/lagnew.f90,
	  src/lagr/lagnpr.f90, src/lagr/lagnwc.f90, users/lagr/uslain.f90:
	  Increase the size of work array to the maximum number of
	  particles.

2009-09-30 13:43  Code_Saturne development team <saturne-support@edf.fr>

	* [r1031] ChangeLog, src/lagr/lagout.f90, src/lagr/memla2.f90: Add
	  a missing memory-pointer initialization and a missing
	  indirection.

2009-09-30 10:11  Code_Saturne development team <saturne-support@edf.fr>

	* [r1030] ChangeLog, gui/Pages/StartRestartAdvancedDialogForm.ui,
	  include/base/cs_gui.h, src/base/cs_gui.c, src/base/iniusi.f90:
	  Read the checkpoint frequency parameter in the XML file.

2009-09-30 09:55  Code_Saturne development team <saturne-support@edf.fr>

	* [r1029] ChangeLog, gui/Pages/AnalysisFeaturesView.py: Disable
	  humid atmosphere modelling and enable steady/unsteady choice for
	  specific physics in GUI (coherent with input verification as
	  well).

2009-09-30 09:37  Code_Saturne development team <saturne-support@edf.fr>

	* [r1028] ChangeLog, gui/Pages/NumericalParamEquationModel.py:
	  Correctly handle the blending factor with SOLU convective scheme
	  in GUI.

2009-09-30 09:26  Code_Saturne development team <saturne-support@edf.fr>

	* [r1027] ChangeLog, src/base/cs_gui_boundary_conditions.c: Fix a
	  crash when specifying an inlet with oxydant and coal through the
	  GUI.

2009-09-29 17:47  Code_Saturne development team <saturne-support@edf.fr>

	* [r1026] ChangeLog,
	  gui/Pages/BatchRunningAdvancedOptionsDialogForm.ui,
	  gui/Pages/BatchRunningView.py: Add a box for the
	  automatic/prescribed choice of CS_TMP_PREFIX.

2009-09-29 17:09  Code_Saturne development team <saturne-support@edf.fr>

	* [r1025] ChangeLog, gui/Pages/OutputControlModel.py,
	  gui/Pages/OutputControlView.py, src/base/cs_gui.c: Fix a problem
	  related to monitoring points numbering (when the number of probes
	  is greater than 10).

2009-09-29 16:39  Code_Saturne development team <saturne-support@edf.fr>

	* [r1024] ChangeLog, src/base/cou1di.f90, src/base/coupbi.f90: Fix
	  a wrong indirection for temperature/enthalpy conversion in case
	  of coupling with SYRTHES or the 1D-wall thermal module.

2009-09-29 16:28  Code_Saturne development team <saturne-support@edf.fr>

	* [r1023] ChangeLog, src/base/cs_gui.c: Fix an issue for scalar
	  profiles (label not found in XML files).

2009-09-29 15:08  Code_Saturne development team <saturne-support@edf.fr>

	* [r1022] ChangeLog, gui/Pages/BatchRunningModel.py,
	  gui/Pages/ProfilesForm.ui, gui/Pages/ProfilesModel.py,
	  gui/Pages/ProfilesView.py, src/base/cs_gui.c: Improve the
	  behaviour of the profiles management in GUI (add a title box and
	  automatically set the extension to .dat).

2009-09-29 10:45  Code_Saturne development team <saturne-support@edf.fr>

	* [r1021] ChangeLog, src/base/ecrava.f90, src/base/lecamx.f90,
	  src/cplv/cpptcl.f90: Fix an issue with restart calculations in
	  pulverized coal. Improve the initialization of boundary
	  conditions for some variables.

2009-09-28 16:49  Code_Saturne development team <saturne-support@edf.fr>

	* [r1020] ChangeLog, src/base/memtri.f90, src/base/modini.f90,
	  src/base/varpos.f90: Correctly handle non-uniform/variable
	  time-step post-processing.

2009-09-28 16:26  Code_Saturne development team <saturne-support@edf.fr>

	* [r1019] ChangeLog, bin/cs_case_domain.py, bin/runcase.in: Make
	  the copy of JANAF depend on the presence of a thermochemistry
	  file.

2009-09-28 15:04  Code_Saturne development team <saturne-support@edf.fr>

	* [r1018] ChangeLog, src/base/verini.f90: Abort calculation if SST
	  model is used in conjonction with Lagrangian two-way coupling
	  modelling.

2009-09-24 18:06  Code_Saturne development team <saturne-support@edf.fr>

	* [r1017] ChangeLog, src/base/varpos.f90: Fix an issue when
	  averaging variables with the steady algorithm.

2009-09-24 11:48  Code_Saturne development team <saturne-support@edf.fr>

	* [r1016] ChangeLog, po/fr.po, src/base/cs_matrix.c,
	  src/base/cs_mesh.c, src/ctwr/cs_ctwr.c: Update related to French
	  translation.

2009-09-24 10:12  Code_Saturne development team <saturne-support@edf.fr>

	* [r1015] ChangeLog, src/base/caltri.f90, src/base/ecrava.f90:
	  Improve restart files writing information in the listing.

2009-09-23 16:26  Code_Saturne development team <saturne-support@edf.fr>

	* [r1014] ChangeLog, src/base/cs_restart.c: Merge two tests for a
	  more clearer code.

2009-09-23 14:49  Code_Saturne development team <saturne-support@edf.fr>

	* [r1013] ChangeLog, src/base/cs_restart.c: Correct error message.

2009-09-22 17:56  Code_Saturne development team <saturne-support@edf.fr>

	* [r1012] ChangeLog, src/base/cs_mesh.c: Add more thorough
	  information on load balancing (mesh-related information).

2009-09-22 17:53  Code_Saturne development team <saturne-support@edf.fr>

	* [r1011] ChangeLog, include/lagr/lagran.h: Avoid a warning on a
	  potential truncature of a header related to particles tracking
	  restart file (no impact on current code as variable names are
	  shorter than the new maximum length).

2009-09-22 15:43  Code_Saturne development team <saturne-support@edf.fr>

	* [r1010] ChangeLog, src/base/cs_restart.c: Add warning and error
	  messages when reading restart files.

2009-09-22 15:04  Code_Saturne development team <saturne-support@edf.fr>

	* [r1009] ChangeLog, src/base/schtmp.f90: Fix a (very)
	  long-standing bug related to the extrapolation of some physical
	  variables (specific heat and laminar viscosity of scalars).
	  Fortunately, the defaut value for the theta-scheme has been first
	  order since the the beginning (even with a second order scheme in
	  time).

2009-09-22 13:12  Code_Saturne development team <saturne-support@edf.fr>

	* [r1008] ChangeLog, src/base/cs_sles.c: Add a residue calculation
	  to avoid uninitialized value (Bi-CGStab).

2009-09-22 13:11  Code_Saturne development team <saturne-support@edf.fr>

	* [r1007] ChangeLog, src/base/inivar.f90, src/base/typecl.f90:
	  English translation for variables and boundary conditions output.

2009-09-22 12:38  Code_Saturne development team <saturne-support@edf.fr>

	* [r1006] ChangeLog, src/base/cs_sles.c: Always use the IBM
	  compiler optimized form for the dot product.

2009-09-22 12:31  Code_Saturne development team <saturne-support@edf.fr>

	* [r1005] ChangeLog, src/base/cs_parall.c: Merge two MPI_Bcast into
	  a single one for optimization.

2009-09-22 12:29  Code_Saturne development team <saturne-support@edf.fr>

	* [r1004] ChangeLog, src/base/cs_multigrid.c: Force the
	  preconditioner to be diagonal on coarse levels for the multigrid
	  algorithm (otherwise the algorithm fails because the coarse
	  matrices structure is not complete).

2009-09-22 12:24  Code_Saturne development team <saturne-support@edf.fr>

	* [r1003] ChangeLog, src/base/cs_matrix.c: Add an optimized
	  matrix.vector product in CSR format based on MKL.

2009-09-22 12:20  Code_Saturne development team <saturne-support@edf.fr>

	* [r1002] ChangeLog, src/base/condli.f90: Fix a wrong number of
	  inflowing outlet in parallel runs.

2009-09-22 10:32  Code_Saturne development team <saturne-support@edf.fr>

	* [r1001] ChangeLog, config/cs_fortran.m4, configure.ac,
	  src/base/csflsh.f90: Add a flush statement test (Fortran 2003) in
	  autoconf pass.

2009-09-22 10:08  Code_Saturne development team <saturne-support@edf.fr>

	* [r1000] ChangeLog, bin/cs_case_domain.py: Add an optional
	  argument for the partitioner.

2009-09-18 15:39  Code_Saturne development team <saturne-support@edf.fr>

	* [r999] ChangeLog, bin/cs_create.py,
	  extras/bash_completion/code_saturne: Add different options to the
	  case creation commmand.

2009-09-16 09:51  Code_Saturne development team <saturne-support@edf.fr>

	* [r998] ChangeLog, users/atmo/usatcl.f90, users/atmo/usativ.f90,
	  users/base/usalcl.f90, users/base/usclim.f90,
	  users/base/usiniv.f90, users/base/uskpdc.f90,
	  users/base/usphyv.f90, users/base/usproj.f90,
	  users/base/uspt1d.f90, users/base/ussatc.f90,
	  users/base/usstru.f90, users/base/ustske.f90,
	  users/base/ustskw.f90, users/base/ustsma.f90,
	  users/base/ustsns.f90, users/base/ustsri.f90,
	  users/base/ustssc.f90, users/base/ustsv2.f90,
	  users/base/usvima.f90, users/base/usvort.f90,
	  users/cfbl/uscfcl.f90, users/cfbl/uscfpv.f90,
	  users/cfbl/uscfxi.f90, users/cogz/usd3pc.f90,
	  users/cogz/usd3pi.f90, users/cogz/usebuc.f90,
	  users/cogz/usebui.f90, users/cogz/uslwcc.f90,
	  users/cogz/uslwci.f90, users/cplv/uscpcl.f90,
	  users/cplv/uscpiv.f90, users/cplv/uscplc.f90,
	  users/ctwr/usctcl.f90, users/ctwr/usctiv.f90,
	  users/elec/uselcl.f90, users/elec/useliv.f90,
	  users/elec/uselph.f90, users/elec/usetcl.f90,
	  users/fuel/usfucl.f90, users/fuel/usfuiv.f90,
	  users/lagr/uslag2.f90, users/rayt/usray2.f90: Remove redundant
	  information on boundary face conditions and elements selectionn
	  based on a given criterion.

2009-09-16 09:44  Code_Saturne development team <saturne-support@edf.fr>

	* [r997] ChangeLog, extras/bash_completion/code_saturne: Improve
	  the bash completion script.

2009-09-15 17:36  Code_Saturne development team <saturne-support@edf.fr>

	* [r996] ChangeLog, bin/cs_plot_probes.py: Make use of the
	  cs_exec_environment module in cs_plot_probes.

2009-09-15 17:30  Code_Saturne development team <saturne-support@edf.fr>

	* [r995] ChangeLog, include/base/cs_base.h, src/base/cs_base.c:
	  Remove unused MPE code (for MPI instrumentation).

2009-09-15 17:24  Code_Saturne development team <saturne-support@edf.fr>

	* [r994] src/base/cs_sles.c: Minor changes in the constant
	  definition.

2009-09-15 17:23  Code_Saturne development team <saturne-support@edf.fr>

	* [r993] ChangeLog, src/base/cs_sles.c: Fix the precision of the
	  bi-CgStab linear solver (revert to the old behaviour of version
	  1.2 as it improves the solver converges). --Ceette ligne, et les
	  suivantes ci-dessous, seront ignorées--
	  
	  M ChangeLog M src/base/cs_sles.c

2009-09-15 17:14  Code_Saturne development team <saturne-support@edf.fr>

	* [r992] COMPATIBILITY, ChangeLog: Update the COMPATIBILITY file

2009-09-15 17:02  Code_Saturne development team <saturne-support@edf.fr>

	* [r991] ChangeLog, include/base/cs_base.h,
	  include/base/cs_preprocessor_data.h,
	  include/base/cs_proxy_comm.h, include/base/cs_sles.h,
	  libsyrcs/syr_comm.c, libsyrcs/syr_cs.c, src/apps/cs_solver.c,
	  src/base/cs_ast_coupling.c, src/base/cs_base.c,
	  src/base/cs_benchmark.c, src/base/cs_coupling.c,
	  src/base/cs_ext_neighborhood.c,
	  src/base/cs_gui_boundary_conditions.c,
	  src/base/cs_gui_mobile_mesh.c, src/base/cs_gui_particles.c,
	  src/base/cs_gui_radiative_transfer.c, src/base/cs_io.c,
	  src/base/cs_matrix.c, src/base/cs_mesh.c,
	  src/base/cs_mesh_halo.c, src/base/cs_post.c,
	  src/base/cs_preprocessor_data.c, src/base/cs_restart.c,
	  src/base/cs_sles.c, src/base/cs_tpar1d.c, src/base/initi1.f90,
	  src/base/inivar.f90, src/base/typecl.f90, src/ctwr/cs_ctwr.c,
	  src/ctwr/cs_ctwr_air_props.c, src/ctwr/cs_ctwr_mesh.c,
	  src/mati/mtimpi.f90, users/base/usclim.f90,
	  users/base/usini1.f90: Minor modifications related to C89
	  compilation, code cleaning and compilation warnings.

2009-09-15 16:22  Code_Saturne development team <saturne-support@edf.fr>

	* [r990] ChangeLog, extras/bash_completion/code_saturne: Improve
	  the bash completion script so that it removes redundant or
	  mutually exclusive options.

2009-09-14 15:58  Code_Saturne development team <saturne-support@edf.fr>

	* [r989] ChangeLog, gui/Base/CommandLine.py[DEL],
	  gui/Base/Makefile.am, gui/cs_gui.py: Move from getopt to optparse
	  module for command line parsing.

2009-09-14 15:45  Code_Saturne development team <saturne-support@edf.fr>

	* [r988] doc/developper/Makefile.in[DEL],
	  doc/developper/graphics/Makefile.in[DEL]: Remove spurious
	  Makefile.in

2009-09-14 15:30  Code_Saturne development team <saturne-support@edf.fr>

	* [r987] doc/developper, doc/developper/graphics: Edit svn:ignore
	  property.

2009-09-14 15:28  Code_Saturne development team <saturne-support@edf.fr>

	* [r986] ChangeLog, configure.ac, doc/Makefile.am, doc/developper,
	  doc/developper/Makefile.am, doc/developper/Makefile.in,
	  doc/developper/developper.tex, doc/developper/graphics,
	  doc/developper/graphics/Makefile.am,
	  doc/developper/graphics/Makefile.in, doc/developper/input: Add a
	  template for the developper documentation.

2009-09-14 15:24  Code_Saturne development team <saturne-support@edf.fr>

	* [r985] ChangeLog, bin/cs_plot_probes.py: Add an option to xmgrace
	  for the window size.

2009-09-14 15:16  Code_Saturne development team <saturne-support@edf.fr>

	* [r984] ChangeLog, bin/cs_check_mesh.py: Make use of the
	  cs_exec_environment instead of subprocess module.

2009-09-14 14:18  Code_Saturne development team <saturne-support@edf.fr>

	* [r983] ChangeLog, extras/bash_completion/code_saturne: Remove
	  have function as it may not be found.

2009-09-14 13:34  Code_Saturne development team <saturne-support@edf.fr>

	* [r982] Makefile.am: Add a bash completion script for cs and
	  cs_solver.

2009-09-14 13:33  Code_Saturne development team <saturne-support@edf.fr>

	* [r981] ChangeLog, Makefile.am, extras/bash_completion,
	  extras/bash_completion/code_saturne: Add a bash completion script
	  for cs and cs_solver.

2009-09-14 10:40  Code_Saturne development team <saturne-support@edf.fr>

	* [r980] ChangeLog, src/base/cs_base.c: Adapt the code that waits
	  for a MPI_Abort in case of errors. There should not be now any
	  spurious error file.

2009-09-14 10:31  Code_Saturne development team <saturne-support@edf.fr>

	* [r979] ChangeLog, include/base/cs_parall.h, src/base/cs_parall.c:
	  Add a Fortran wrapper for MPI_Barrier (mainly for debugging
	  purpose).

2009-09-14 10:28  Code_Saturne development team <saturne-support@edf.fr>

	* [r978] ChangeLog, include/base/cs_preprocessor_data.h,
	  src/base/cs_preprocessor_data.c: The space-filling-curve
	  algorithm for domain splitting is activated by default. A Fortran
	  subroutine is available to change this choice.

2009-09-14 10:19  Code_Saturne development team <saturne-support@edf.fr>

	* [r977] ChangeLog, include/base/cs_io.h, include/base/cs_opts.h,
	  src/apps/cs_solver.c, src/base/cs_io.c, src/base/cs_opts.c,
	  src/base/cs_preprocessor_data.c: Add a mpi_io option to the
	  command line so that one can use FVM compiled with MPI/IO support
	  and decide at runtime which type of I/O to use.

2009-09-11 17:26  Code_Saturne development team <saturne-support@edf.fr>

	* [r976] ChangeLog, src/apps/Makefile.am, src/base/Makefile.am:
	  Same trick for MEI as in previous commit.

2009-09-11 17:23  Code_Saturne development team <saturne-support@edf.fr>

	* [r975] ChangeLog, src/apps/Makefile.am, src/base/Makefile.am,
	  src/ctwr/Makefile.am, src/lagr/Makefile.am: Change FVM and BFT
	  CPPFLAGS order so that one can find FVM headers, before BFT ones.

2009-09-11 17:18  Code_Saturne development team <saturne-support@edf.fr>

	* [r974] ChangeLog, Makefile.am, config/cs_fortran.m4: Add a
	  Fortran m4 file for module detection and further tests (e.g.
	  flush subroutine detection).

2009-09-11 15:43  Code_Saturne development team <saturne-support@edf.fr>

	* [r973] ChangeLog, doc/style/csmacros.sty,
	  doc/user/graphics/Makefile.am,
	  doc/user/graphics/join_periodic.fig,
	  doc/user/graphics/join_tolerance.fig, doc/user/saturne1.tex:
	  Merge the preprocessor user guide into Code_Saturne user guide.

2009-09-11 13:03  Code_Saturne development team <saturne-support@edf.fr>

	* [r972] ChangeLog, Makefile.am, bin/cs_case.py,
	  bin/cs_case_domain.py, bin/cs_compile.py, bin/cs_create.py,
	  bin/cs_exec_environment.py, bin/runcase.py.in,
	  bin/runcase_coupling.in[DEL], configure.ac: Add a new Python
	  runcase script with more code coupling capabilities and more
	  aware of MPI and batch environments. Add an option to the create
	  command to use this script and relax the constraint on the
	  upppercase name of the study. Some other modifications relative
	  to scripts.

2009-09-11 10:17  Code_Saturne development team <saturne-support@edf.fr>

	* [r971] ChangeLog, src/elec/elini1.f90: Disable by default the
	  multigrid algorithm for the potential vector in MHD as it does
	  not seem to work correctly.

2009-09-10 17:38  Code_Saturne development team <saturne-support@edf.fr>

	* [r970] ChangeLog, Makefile.am, bin/cs.in, bin/cs_compile.py,
	  bin/cs_config.py.in, bin/cs_config_build.py.in, configure.ac:
	  Modifications to how the config info are handled to avoid
	  potential issues (split configuration info into build/install
	  info).

2009-09-10 17:02  Code_Saturne development team <saturne-support@edf.fr>

	* [r969] ChangeLog, config/cs_auto_flags.sh: Updating Itanium
	  compiler options for hot optimizations.

2009-09-10 16:58  Code_Saturne development team <saturne-support@edf.fr>

	* [r968] gui/VERSION[DEL]: Remove no-more-used VERSION file.

2009-09-10 16:55  Code_Saturne development team <saturne-support@edf.fr>

	* [r967] ChangeLog, include/base/cs_join_util.h,
	  src/base/cs_join.c, src/base/cs_join_intersect.c,
	  src/base/cs_join_merge.c, src/base/cs_join_mesh.c,
	  src/base/cs_join_split.c, src/base/cs_join_update.c,
	  src/base/cs_join_util.c: Minor adaptations in the joining
	  algorithm code, relative to porting to MPI1 and code cleaning.

2009-09-09 16:03  Code_Saturne development team <saturne-support@edf.fr>

	* [r966] ChangeLog, src/base/cs_join_mesh.c: Fix an issue in the
	  mesh cleaning stage of the joining algorithm.

2009-09-09 13:52  Code_Saturne development team <saturne-support@edf.fr>

	* [r965] ChangeLog, src/base/cs_join.c: Fix a memory leak in case
	  of conforming joining.

2009-09-09 13:39  Code_Saturne development team <saturne-support@edf.fr>

	* [r964] ChangeLog, src/base/cs_join_util.c: Fix a bug in single
	  element building.

2009-09-09 13:30  Code_Saturne development team <saturne-support@edf.fr>

	* [r963] ChangeLog, src/base/cs_join_util.c: Fix a blocking problem
	  when compiling without MPI support.

2009-09-04 17:41  Code_Saturne development team <saturne-support@edf.fr>

	* [r962] src/base/verini.f90: Missing line continuation character.

2009-09-04 16:27  Code_Saturne development team <saturne-support@edf.fr>

	* [r961] ChangeLog, bin/cs_config.py.in, bin/runcase.in,
	  bin/runcase_coupling.in, config/cs_auto_flags.sh,
	  config/cs_fvm.m4, config/cs_mpi.m4, config/cs_syrthes.m4: Build
	  improvement in autotools (compiler flags, FVM detection).

2009-09-04 16:24  Code_Saturne development team <saturne-support@edf.fr>

	* [r960] gui/Pages/BoundaryConditionsVelocityInletView.py:
	  Mispelling correction.

2009-09-03 16:32  Code_Saturne development team <saturne-support@edf.fr>

	* [r959] ChangeLog, bin/cs_config.py.in, bin/cs_info.py,
	  gui/Base/Common.py, gui/Base/MainView.py, gui/Makefile.am,
	  gui/Pages/BatchRunningModel.py, gui/cs_gui.py, gui/setup.py:
	  Update the gui version number, accordingly with the cs_config
	  information.

2009-09-03 16:06  Code_Saturne development team <saturne-support@edf.fr>

	* [r958] bin/cs.in, bin/cs_check_consistency.py, bin/cs_compile.py,
	  bin/cs_create.py, bin/cs_info.py, bin/cs_plot_probes.py,
	  bin/runcase_coupling.in: Remove trailing blanks.

2009-09-03 16:05  Code_Saturne development team <saturne-support@edf.fr>

	* [r957] ChangeLog, sbin/backup, sbin/rmb: Admin scripts
	  improvement.

2009-09-03 15:53  Code_Saturne development team <saturne-support@edf.fr>

	* [r956] ChangeLog, Makefile.am, bin/cs.in, config/cs_mei.m4,
	  configure.ac: Fix a potential issue when replacing "@strings@"
	  with autoconf, it is preferred to use Makefile for this purpose.
	  Also, fix the installation path for MEI (mimicking automake
	  process).

2009-09-02 16:29  Code_Saturne development team <saturne-support@edf.fr>

	* [r955] ChangeLog, src/base/codits.f90: Fix a wrong indirection
	  for variables name array (with multigrid algorithm for purely
	  diffusive scalars).

2009-09-02 16:16  Code_Saturne development team <saturne-support@edf.fr>

	* [r954] ChangeLog, include/base/mltgrd.h: Fix two blocks of
	  commons whose names were identical.

2009-09-02 16:14  Code_Saturne development team <saturne-support@edf.fr>

	* [r953] bin/cs.in, bin/cs_info.py: Documentation improvement

2009-09-02 09:07  Code_Saturne development team <saturne-support@edf.fr>

	* [r952] ChangeLog, include/elec/elincl.h, src/elec/elflux.f90,
	  users/elec/uselen.f90, users/elec/uselrc.f90: Fix a missing test
	  on electric arc modelling that lead in the use of an undefined
	  pointer (on imaginary potential). Add a new common so that
	  "elcou" variable can be used ni several routines (see uselrc.f90
	  for the meaning). Change some incorrect comments.

2009-08-31 16:15  Code_Saturne development team <saturne-support@edf.fr>

	* [r951] ChangeLog, src/lagr/enswaf.f90: Fix EnSight format output
	  for Lagrangian post-processing. Wildcard "stars" symbols were
	  changed in "=" signs by the script that convert subroutines from
	  fixed to free Fortran form.

2009-08-31 12:20  Code_Saturne development team <saturne-support@edf.fr>

	* [r950] ChangeLog, src/base/iniusi.f90: Move the second call to
	  varpos just after the first pass in usray1, so that the code is
	  aware of the activation of the radiative transfer module while
	  reading thermochemistry files.

2009-08-28 17:26  Code_Saturne development team <saturne-support@edf.fr>

	* [r949] ChangeLog, bin/cs_create.py, bin/runcase.in: Fix JANAF
	  file location in user directory. It is now searched in
	  installation directory. Do not install it anymore in user data
	  dir.

2009-08-28 17:14  Code_Saturne development team <saturne-support@edf.fr>

	* [r948] ChangeLog, src/apps/cs_solver.c: Fix a bug when raising
	  false floating-point exceptions on Itanium systems due to
	  speculative tests in optimized builds.

2009-08-28 16:59  Code_Saturne development team <saturne-support@edf.fr>

	* [r947] ChangeLog, src/base/iniusi.f90: Fix a missing call of
	  usray1 in initialization part.

2009-08-27 17:29  Code_Saturne development team <saturne-support@edf.fr>

	* [r946] ChangeLog, src/base/condli.f90: Fix a wrong indirection to
	  access radiative fluxes in cell properties array.

2009-07-29 17:49  Code_Saturne development team <saturne-support@edf.fr>

	* [r944] ChangeLog, config/cs_auto_flags.sh, config/cs_blas.m4: Fix
	  BLAS ESSL link on BlueGene systems.

2009-07-29 16:06  Code_Saturne development team <saturne-support@edf.fr>

	* [r942] ChangeLog, bin/runcase.in, bin/runcase_coupling.in: Fix a
	  spurious copy/paste un the runcase(s) scripts.

2009-07-29 14:51  Code_Saturne development team <saturne-support@edf.fr>

	* [r940] ChangeLog: Tag of 2.0-beta2 version

2009-07-29 14:49  Code_Saturne development team <saturne-support@edf.fr>

	* [r939] ChangeLog, examples/1-simple_junction/case1/case1.xml,
	  examples/1-simple_junction/case1/runcase,
	  examples/2-full_domain/case2/case2.xml,
	  examples/2-full_domain/case2/runcase,
	  examples/2-full_domain/case3/case3.xml,
	  examples/2-full_domain/case3/lance[DEL],
	  examples/2-full_domain/case3/runcase,
	  examples/2-full_domain/case3/usclim.F[DEL],
	  examples/2-full_domain/case3/usclim.f90,
	  examples/2-full_domain/case3/usphyv.F[DEL],
	  examples/2-full_domain/case3/usphyv.f90,
	  examples/2-full_domain/case4/case4.xml,
	  examples/2-full_domain/case4/lance[DEL],
	  examples/2-full_domain/case4/runcase,
	  examples/2-full_domain/case4/usclim.F[DEL],
	  examples/2-full_domain/case4/usclim.f90,
	  examples/2-full_domain/case4/uskpdc.F[DEL],
	  examples/2-full_domain/case4/uskpdc.f90,
	  examples/2-full_domain/case4/usphyv.F[DEL],
	  examples/2-full_domain/case4/usphyv.f90,
	  examples/2-full_domain/case4/usproj.F[DEL],
	  examples/2-full_domain/case4/usproj.f90,
	  examples/3-stratified_junction/case5/case5.xml,
	  examples/3-stratified_junction/case5/runcase,
	  examples/3-stratified_junction/case5/usdpst.F[DEL],
	  examples/3-stratified_junction/case5/usdpst.f90,
	  examples/3-stratified_junction/case5/usmpst.F[DEL],
	  examples/3-stratified_junction/case5/usmpst.f90,
	  examples/3-stratified_junction/case5/usphyv.F[DEL],
	  examples/3-stratified_junction/case5/usphyv.f90,
	  examples/3-stratified_junction/case5/usvpst.F[DEL],
	  examples/3-stratified_junction/case5/usvpst.f90: Update tutorial
	  examples to new Fortran format and Xml model.

2009-07-29 12:17  Code_Saturne development team <saturne-support@edf.fr>

	* [r938] ChangeLog, src/base/memnav.f90, src/base/tridim.f90,
	  src/base/verini.f90: Move loop on velocity/pressure system so
	  that it includes the boundary conditions calculation.

2009-07-28 17:10  Code_Saturne development team <saturne-support@edf.fr>

	* [r937] src/ctwr/cs_ctwr_mesh.c: Unused code cleaning.

2009-07-28 13:12  Code_Saturne development team <saturne-support@edf.fr>

	* [r936] configure.ac: Update version number to 2.0.0-beta2

2009-07-28 12:03  Code_Saturne development team <saturne-support@edf.fr>

	* [r935] src/ctwr/cs_ctwr_f2c.f90: Use selection mechanism for
	  exchange zone definition.

2009-07-28 12:02  Code_Saturne development team <saturne-support@edf.fr>

	* [r934] ChangeLog, include/ctwr/cs_ctwr.h, src/ctwr/Makefile.am,
	  src/ctwr/cs_ctwr.c, src/ctwr/cs_ctwr_mesh.c,
	  users/ctwr/usctdz.f90: Use selection mechanism for exchange zone
	  definition.

2009-07-28 10:16  Code_Saturne development team <saturne-support@edf.fr>

	* [r933] ChangeLog, include/ctwr/ctincl.h, users/ctwr/uscti1.f90:
	  Make temperature difference setup available from uscti1.f90

2009-07-28 10:08  Code_Saturne development team <saturne-support@edf.fr>

	* [r932] ChangeLog, include/ctwr/cs_ctwr.h,
	  include/ctwr/cs_ctwr_air_props.h, include/ctwr/cs_ctwr_mesh.h,
	  src/base/cregeo.f90, src/ctwr/cs_ctwr.c,
	  src/ctwr/cs_ctwr_air_props.c, src/ctwr/cs_ctwr_mesh.c,
	  users/ctwr/usctdz.f90, users/ctwr/uscti1.f90: Add a global
	  structure in cooling tower module to store common fluid
	  properties and gravity vector.

2009-07-28 09:14  Code_Saturne development team <saturne-support@edf.fr>

	* [r931] ChangeLog, src/base/autmgr.f90, src/base/crstgr.f90:
	  Replace a goto statement with a do while loop. Add an anisotropy
	  criterion calculation for coarse matrices.

2009-07-28 09:07  Code_Saturne development team <saturne-support@edf.fr>

	* [r930] ChangeLog, doc/user/saturne1.tex, src/base/autmgr.f90,
	  src/base/crstgr.f90, src/base/iniini.f90, users/base/ustmgr.f90:
	  Comments translation and documentation update.

2009-07-28 08:33  Code_Saturne development team <saturne-support@edf.fr>

	* [r929] po/fr.po: Remove missing fuzzy.

2009-07-28 08:29  Code_Saturne development team <saturne-support@edf.fr>

	* [r928] libsyrcs/syr_cs.c, libsyrcs/syr_defs.h: Untabify.

2009-07-28 08:26  Code_Saturne development team <saturne-support@edf.fr>

	* [r927] ChangeLog,
	  gui/Pages/BatchRunningAdvancedOptionsDialogForm.ui,
	  gui/Pages/FacesSelectionView.py, gui/Pages/SolutionVerifForm.ui,
	  gui/Pages/UserScalarPropertiesForm.ui: Minor comments
	  improvement.

2009-07-28 08:01  Code_Saturne development team <saturne-support@edf.fr>

	* [r926] ChangeLog, Makefile.am, config/cs_syrthes.m4,
	  libsyrcs/Makefile.am, libsyrcs/syr_cs.c, libsyrcs/syr_defs.h:
	  Modify libsyrcs code so that one can compile SYRTHES/Code_Saturne
	  coupling library without SYRTHES. Information on SYRTHES
	  installation and compilers could now be given after Code_Saturne
	  installation.

2009-07-28 07:56  Code_Saturne development team <saturne-support@edf.fr>

	* [r925] bin/cs.in: Missing commit for MEI localization.

2009-07-28 07:55  Code_Saturne development team <saturne-support@edf.fr>

	* [r924] ChangeLog, config/cs_auto_flags.sh: Change CFLAGS to gnu99
	  standard for compilation on Cygwin.

2009-07-28 07:54  Code_Saturne development team <saturne-support@edf.fr>

	* [r923] ChangeLog, config/cs_mei.m4: Adapt main script so that it
	  handles non standard directory for MEI installation (precisely
	  not the same as the kernel).

2009-07-28 07:52  Code_Saturne development team <saturne-support@edf.fr>

	* [r922] ChangeLog, src/base/caltri.f90: Remove seemingly useless
	  test for restart files writing. All files are now written at the
	  same moment (even for the last time-step).

2009-07-28 07:49  Code_Saturne development team <saturne-support@edf.fr>

	* [r921] ChangeLog, configure.ac: Add missing commit when fixing
	  Lagrangian issue.

2009-07-27 17:54  Code_Saturne development team <saturne-support@edf.fr>

	* [r920] ChangeLog, bin/cs.in: Add a trick to find MEI Python
	  module when not in standard path.

2009-07-27 17:52  Code_Saturne development team <saturne-support@edf.fr>

	* [r919] ChangeLog, config/cs_auto_flags.sh, src/lagr/Makefile.am,
	  src/lagr/cs_lagr.c: Fix a wrong assumed behaviour on x86_64 and
	  IA64 computers in the particles tracking algorithm. One assumed
	  that the internal FP precision was always 80 bits (true for FPU
	  x87 coprocessor on x86 processors but wrong with SSE
	  optimizations)... This is a short term fix (assembler +
	  compiler-dependent option).

2009-07-27 10:42  Code_Saturne development team <saturne-support@edf.fr>

	* [r918] ChangeLog, bin/runcase.in, bin/runcase_coupling.in,
	  include/base/entsor.h, include/base/optcal.h,
	  include/ctwr/cs_ctwr.h, src/base/caltri.f90, src/base/cregeo.f90,
	  src/base/iniini.f90, src/ctwr/cs_ctwr.c, users/ctwr/uscti1.f90:
	  Add restarting capabilities for cooling-towers module.

2009-07-27 09:15  Code_Saturne development team <saturne-support@edf.fr>

	* [r917] ChangeLog, src/base/cs_join_update.c: Fix an issue in the
	  parallel joining for specific cases.

2009-07-23 16:59  Code_Saturne development team <saturne-support@edf.fr>

	* [r916] ChangeLog, src/ctwr/cs_ctwr_halo.c: Fix a bug in parallel
	  simulations with cooling-tower module.

2009-07-23 16:56  Code_Saturne development team <saturne-support@edf.fr>

	* [r915] ChangeLog, src/base/ecrlis.f90: Fix a bug introduced a
	  couple of rev. ago in listing output.

2009-07-23 16:31  Code_Saturne development team <saturne-support@edf.fr>

	* [r914] bin/cs_create.py: Fix a wrong copy/paste in user script.

2009-07-23 14:12  Code_Saturne development team <saturne-support@edf.fr>

	* [r913] configure.ac: Upgrade FVM to the 0.14.0 version

2009-07-23 12:45  Code_Saturne development team <saturne-support@edf.fr>

	* [r912] ChangeLog, include/base/cs_gui.h, include/base/cstphy.h,
	  src/base/cs_gui.c, src/base/impini.f90, src/base/iniini.f90,
	  src/base/iniusi.f90, src/base/preduv.f90, users/base/usini1.f90:
	  Add Coriolis source terms in standard calculations.

2009-07-23 12:39  Code_Saturne development team <saturne-support@edf.fr>

	* [r911] users/base/usini1.f90: Remove references to Coriolis
	  forces.

2009-07-23 10:05  Code_Saturne development team <saturne-support@edf.fr>

	* [r910] users/base/usini1.f90: Add missing line.

2009-07-23 10:03  Code_Saturne development team <saturne-support@edf.fr>

	* [r909] ChangeLog, include/base/cs_join_util.h,
	  src/base/cs_join_update.c, src/base/cs_join_util.c: Fix an issue
	  in the parallel joining for specific cases.

2009-07-23 09:43  Code_Saturne development team <saturne-support@edf.fr>

	* [r908] ChangeLog, users/base/usclim.f90, users/base/usini1.f90:
	  Translation of the two main user subroutines (initialization and
	  boundary conditions).

2009-07-23 08:56  Code_Saturne development team <saturne-support@edf.fr>

	* [r907] ChangeLog, src/base/cs_join_merge.c: Fix a test on
	  tolerance in the merge stage.

2009-07-22 17:46  Code_Saturne development team <saturne-support@edf.fr>

	* [r906] sbin/backup: Update backup script.

2009-07-22 17:45  Code_Saturne development team <saturne-support@edf.fr>

	* [r905] ChangeLog, src/base/cs_join_intersect.c: Fix a possible
	  uninitialized variable in joining algorithm.

2009-07-22 17:42  Code_Saturne development team <saturne-support@edf.fr>

	* [r904] ChangeLog, src/base/cs_benchmark.c: Fix a possible
	  uninitialized variable in benchmark routines.

2009-07-22 17:41  Code_Saturne development team <saturne-support@edf.fr>

	* [r903] ChangeLog, config/cs_fvm.m4: Fix a possible compilation
	  issue on BlueGene systems.

2009-07-22 17:39  Code_Saturne development team <saturne-support@edf.fr>

	* [r902] ChangeLog, include/base/cs_ext_neighborhood.h,
	  include/base/cs_mesh.h, src/base/cs_ext_neighborhood.c,
	  src/base/cs_mesh.c: Fix a long-standing bug when reducing
	  extended neighborhood.

2009-07-22 17:32  Code_Saturne development team <saturne-support@edf.fr>

	* [r901] ChangeLog, Makefile.am, bin/cs_create.py,
	  users/atmo/usatcl.f90, users/atmo/usati1.f90,
	  users/atmo/usativ.f90, users/base/usalcl.f90,
	  users/base/usalin.f90, users/base/usaste.f90,
	  users/base/usclim.f90, users/base/usdpst.f90,
	  users/base/ushist.f90, users/base/usini1.f90,
	  users/base/usiniv.f90, users/base/usjoin.f90,
	  users/base/usmodg.f90, users/base/usmpst.f90,
	  users/base/usphyv.f90, users/base/usproj.f90,
	  users/base/uspt1d.f90, users/base/ussatc.f90,
	  users/base/ussmag.f90, users/base/usstru.f90,
	  users/base/ussyrc.f90, users/base/usthht.f90,
	  users/base/ustmgr.f90, users/base/ustske.f90,
	  users/base/ustskw.f90, users/base/ustsns.f90,
	  users/base/ustsri.f90, users/base/ustssc.f90,
	  users/base/ustsv2.f90, users/base/usvima.f90,
	  users/base/usvist.f90, users/base/usvpst.f90,
	  users/cfbl/uscfcl.f90, users/cfbl/uscfpv.f90,
	  users/cfbl/uscfth.f90, users/cfbl/uscfx1.f90,
	  users/cfbl/uscfx2.f90, users/cfbl/uscfxi.f90,
	  users/cogz/usd3p1.f90, users/cogz/usd3pc.f90,
	  users/cogz/usd3pi.f90, users/cogz/usebu1.f90,
	  users/cogz/usebuc.f90, users/cogz/usebui.f90,
	  users/cogz/uslwc1.f90, users/cogz/uslwcc.f90,
	  users/cogz/uslwci.f90, users/cplv/uscpcl.f90,
	  users/cplv/uscpi1.f90, users/cplv/uscpiv.f90,
	  users/cplv/uscpl1.f90, users/cplv/uscplc.f90,
	  users/ctwr/usctcl.f90, users/ctwr/usctdz.f90,
	  users/ctwr/uscti1.f90, users/ctwr/usctiv.f90,
	  users/elec/uselcl.f90, users/elec/useli1.f90,
	  users/elec/useliv.f90, users/elec/uselph.f90,
	  users/fuel/usfucl.f90, users/fuel/usfui1.f90,
	  users/fuel/usfuiv.f90, users/lagr/uslabo.f90,
	  users/lagr/usladp.f90, users/lagr/uslaed.f90,
	  users/lagr/uslafe.f90, users/lagr/uslag1.f90,
	  users/lagr/uslag2.f90, users/lagr/uslain.f90,
	  users/lagr/uslapr.f90, users/lagr/uslaru.f90,
	  users/lagr/uslast.f90, users/lagr/uslatc.f90,
	  users/lagr/uslatp.f90, users/pprt/usppmo.f90,
	  users/rayt/usray1.f90, users/rayt/usray2.f90,
	  users/rayt/usray3.f90: Translation in English of magic strings in
	  user files.

2009-07-22 17:19  Code_Saturne development team <saturne-support@edf.fr>

	* [r900] ChangeLog, po/POTFILES.in, po/fr.po: Update the
	  translation files.

2009-07-22 16:50  Code_Saturne development team <saturne-support@edf.fr>

	* [r899] ChangeLog, include/ctwr/cs_ctwr.h, src/ctwr/cs_ctwr.c,
	  src/ctwr/cs_ctwr_halo.c, src/ctwr/cs_ctwr_mesh.c: Fix several
	  bugs in cooling-tower module and clean a few lines.

2009-07-22 16:38  Code_Saturne development team <saturne-support@edf.fr>

	* [r898] src/ctwr/cs_ctwr_mesh.c: Minor correction for a correct
	  build.

2009-07-22 16:35  Code_Saturne development team <saturne-support@edf.fr>

	* [r897] ChangeLog, include/ctwr/cs_ctwr.h,
	  include/ctwr/cs_ctwr_mesh.h, src/ctwr/Makefile.am,
	  src/ctwr/cs_ctwr.c, src/ctwr/cs_ctwr_mesh.c: Split main
	  cooling-tower modelling routine in two for a better understanding
	  (mainly to move aside the mesh generation).

2009-07-22 15:55  Code_Saturne development team <saturne-support@edf.fr>

	* [r896] ChangeLog, Makefile.am, doc/tutorial/test_cases[DEL],
	  examples[CPY]: Move tutorial examples into a dedicated examples
	  directory.

2009-07-22 15:34  Code_Saturne development team <saturne-support@edf.fr>

	* [r895] src/base/tridim.f90: Add missing atmopheric header.

2009-07-22 15:26  Code_Saturne development team <saturne-support@edf.fr>

	* [r894] ChangeLog, src/base/tridim.f90: Add missing changes in
	  tridim.f90 for GUI improvement... sorry

2009-07-22 15:00  Code_Saturne development team <saturne-support@edf.fr>

	* [r893] ChangeLog, src/base/cs_io.c: Fix a minor failure in I/O
	  management.

2009-07-22 14:55  Code_Saturne development team <saturne-support@edf.fr>

	* [r892] ChangeLog, src/base/modini.f90: Do not relax turbulent
	  variables (k/epsilon/omega) in unsteady simulations.

2009-07-22 14:15  Code_Saturne development team <saturne-support@edf.fr>

	* [r891] ChangeLog, src/rayt/raypun.f90: Fix a bug in the P1 model
	  for radiative transfer, where a local variable "iel" was not
	  defined.

2009-07-22 08:23  Code_Saturne development team <saturne-support@edf.fr>

	* [r890] ChangeLog, src/base/cs_gui.c: Adapt 1d-profiles file to
	  SALOME format for title and labels.

2009-07-20 17:59  Code_Saturne development team <saturne-support@edf.fr>

	* [r889] ChangeLog: Fix a bug related to oxycombustion.

2009-07-20 17:45  Code_Saturne development team <saturne-support@edf.fr>

	* [r888] ChangeLog, src/base/covofi.f90, src/cplv/cptehm.f90,
	  src/fuel/Makefile.am, src/fuel/furays.f90: Add radiative
	  transfert support for fuel combustion.

2009-07-20 17:39  Code_Saturne development team <saturne-support@edf.fr>

	* [r887] ChangeLog, src/base/cs_join.c,
	  src/base/cs_join_intersect.c, src/base/cs_join_merge.c,
	  src/base/cs_join_mesh.c: Minor modifications regarding code and
	  comments cleaning.

2009-07-20 17:34  Code_Saturne development team <saturne-support@edf.fr>

	* [r886] ChangeLog, src/base/cs_preprocessor_data.c: Add a
	  space-filling-curve algorithm for parallel partitioning. This
	  algorithm is based on a Morton curve and can be used by setting
	  the variable USE_SFC to 1 in the file.

2009-07-20 17:31  Code_Saturne development team <saturne-support@edf.fr>

	* [r885] ChangeLog, src/base/cs_restart.c: Change the name of a FVM
	  function accordingly.

2009-07-20 17:24  Code_Saturne development team <saturne-support@edf.fr>

	* [r884] ChangeLog, bin/cs_config.py.in, bin/cs_create.py,
	  bin/runcase_coupling.in, config/cs_syrthes.m4: Scripts fixes and
	  SYRTHES-related improvements.

2009-07-20 14:58  Code_Saturne development team <saturne-support@edf.fr>

	* [r883] po/POTFILES.in: Update POTFILES.in file for gettext.

2009-07-20 10:00  Code_Saturne development team <saturne-support@edf.fr>

	* [r882] ChangeLog, gui/Pages/LagrangianBoundariesModel.py,
	  gui/Pages/LagrangianBoundariesView.py,
	  gui/Pages/LagrangianOutputForm.ui,
	  gui/Pages/LagrangianStatisticsForm.ui,
	  include/base/cs_gui_particles.h,
	  include/base/cs_gui_radiative_transfer.h, src/base/cs_gui.c,
	  src/base/cs_gui_boundary_conditions.c,
	  src/base/cs_gui_mobile_mesh.c, src/base/cs_gui_particles.c,
	  src/base/cs_gui_radiative_transfer.c,
	  src/base/cs_gui_specific_physics.c, src/lagr/lagent.f90,
	  src/lagr/lagopt.f90, src/rayt/raycli.f90, users/lagr/uslag1.f90,
	  users/lagr/uslag2.f90: Update particles tracking setup via the
	  graphical interface.

2009-07-17 17:53  Code_Saturne development team <saturne-support@edf.fr>

	* [r881] ChangeLog, include/base/cplsat.h,
	  include/base/cs_sat_coupling.h, include/base/paramx.h,
	  src/base/Makefile.am, src/base/caltri.f90,
	  src/base/cs_sat_coupling.c, src/base/csc2cl.f90,
	  src/base/csc2ts.f90, src/base/csccel.f90, src/base/cscfbr.f90,
	  src/base/cscini.f90, src/base/cscloc.f90, src/base/cscpce.f90,
	  src/base/cscpfb.f90, src/base/iniini.f90, src/base/memcs1.f90,
	  src/base/memcs2.f90, src/base/navsto.f90, src/base/preduv.f90,
	  src/base/tridim.f90, src/base/typecl.f90, users/base/ussatc.f90:
	  Merge code/code coupling feature from the development branch.
	  This feature is not yet functional as it has not been updated to
	  the new communications initialization for codes coupling.

2009-07-17 17:48  Code_Saturne development team <saturne-support@edf.fr>

	* [r880] src/base/cs_join_merge.c: Change the type of a local var
	  from fvm_lnum_t to fvm_gnum_t

2009-07-17 17:16  Code_Saturne development team <saturne-support@edf.fr>

	* [r879] ChangeLog, include/base/cs_join_post.h,
	  include/base/cs_join_update.h, include/base/cs_join_util.h,
	  include/base/cs_mesh.h, include/base/cs_mesh_quantities.h,
	  include/base/cs_search.h, src/apps/cs_solver.c,
	  src/base/cs_join.c, src/base/cs_join_intersect.c,
	  src/base/cs_join_merge.c, src/base/cs_join_mesh.c,
	  src/base/cs_join_post.c, src/base/cs_join_set.c,
	  src/base/cs_join_split.c, src/base/cs_join_update.c,
	  src/base/cs_join_util.c, src/base/cs_mesh.c,
	  src/base/cs_mesh_quantities.c, src/base/cs_search.c,
	  users/base/usjoin.f90: Improvements and fixes in the parallel
	  join algorithm.

2009-07-16 17:59  Code_Saturne development team <saturne-support@edf.fr>

	* [r878] ChangeLog, src/base/cs_base.c: Fix the behaviour of memory
	  consumption output in case of error trapping.

2009-07-16 17:37  Code_Saturne development team <saturne-support@edf.fr>

	* [r877] ChangeLog, gui/Base/BrowserView.py, gui/Base/QtPage.py,
	  gui/Pages/AnalysisFeaturesView.py,
	  gui/Pages/BatchRunningModel.py,
	  gui/Pages/BoundaryConditionsParticlesModel.py,
	  gui/Pages/BoundaryConditionsParticlesView.py,
[...]
	  src/mati/mttssc.f90[CPY], src/mati/mttycl.F[DEL],
	  src/mati/mttycl.f90[CPY], src/pprt/memppt.F[DEL],
	  src/pprt/memppt.f90[CPY], src/pprt/ppcabs.F[DEL],
	  src/pprt/ppcabs.f90[CPY], src/pprt/ppclim.F[DEL],
	  src/pprt/ppclim.f90[CPY], src/pprt/ppcsca.F[DEL],
	  src/pprt/ppcsca.f90[CPY], src/pprt/ppini1.F[DEL],
	  src/pprt/ppini1.f90[CPY], src/pprt/ppinii.F[DEL],
	  src/pprt/ppinii.f90[CPY], src/pprt/ppiniv.F[DEL],
	  src/pprt/ppiniv.f90[CPY], src/pprt/ppinv2.F[DEL],
	  src/pprt/ppinv2.f90[CPY], src/pprt/pplecd.F[DEL],
	  src/pprt/pplecd.f90[CPY], src/pprt/pppdfr.F[DEL],
	  src/pprt/pppdfr.f90[CPY], src/pprt/ppphyv.F[DEL],
	  src/pprt/ppphyv.f90[CPY], src/pprt/ppprcl.F[DEL],
	  src/pprt/ppprcl.f90[CPY], src/pprt/ppprop.F[DEL],
	  src/pprt/ppprop.f90[CPY], src/pprt/ppray4.F[DEL],
	  src/pprt/ppray4.f90[CPY], src/pprt/pptbht.F[DEL],
	  src/pprt/pptbht.f90[CPY], src/pprt/pptssc.F[DEL],
	  src/pprt/pptssc.f90[CPY], src/pprt/pptycl.F[DEL],
	  src/pprt/pptycl.f90[CPY], src/pprt/ppvarp.F[DEL],
	  src/pprt/ppvarp.f90[CPY], src/rayt/memra1.F[DEL],
	  src/rayt/memra1.f90[CPY], src/rayt/memra2.F[DEL],
	  src/rayt/memra2.f90[CPY], src/rayt/memra3.F[DEL],
	  src/rayt/memra3.f90[CPY], src/rayt/raybrd.F[DEL],
	  src/rayt/raybrd.f90[CPY], src/rayt/raycli.F[DEL],
	  src/rayt/raycli.f90[CPY], src/rayt/raydak.F[DEL],
	  src/rayt/raydak.f90[CPY], src/rayt/raydir.F[DEL],
	  src/rayt/raydir.f90[CPY], src/rayt/raydom.F[DEL],
	  src/rayt/raydom.f90[CPY], src/rayt/rayens.F[DEL],
	  src/rayt/rayens.f90[CPY], src/rayt/raylec.F[DEL],
	  src/rayt/raylec.f90[CPY], src/rayt/rayopt.F[DEL],
	  src/rayt/rayopt.f90[CPY], src/rayt/rayout.F[DEL],
	  src/rayt/rayout.f90[CPY], src/rayt/raypar.F[DEL],
	  src/rayt/raypar.f90[CPY], src/rayt/raypun.F[DEL],
	  src/rayt/raypun.f90[CPY], src/rayt/raysca.F[DEL],
	  src/rayt/raysca.f90[CPY], src/rayt/raysol.F[DEL],
	  src/rayt/raysol.f90[CPY], src/rayt/rmodak.F[DEL],
	  src/rayt/rmodak.f90[CPY], users/atmo/usatcl.F[DEL],
	  users/atmo/usatcl.f90[CPY], users/atmo/usati1.F[DEL],
	  users/atmo/usati1.f90[CPY], users/atmo/usativ.F[DEL],
	  users/atmo/usativ.f90[CPY], users/base/usalcl.F[DEL],
	  users/base/usalcl.f90[CPY], users/base/usalin.F[DEL],
	  users/base/usalin.f90[CPY], users/base/usaste.F[DEL],
	  users/base/usaste.f90[CPY], users/base/usclim.F[DEL],
	  users/base/usclim.f90[CPY], users/base/usdpst.F[DEL],
	  users/base/usdpst.f90[CPY], users/base/ushist.F[DEL],
	  users/base/ushist.f90[CPY], users/base/usini1.F[DEL],
	  users/base/usini1.f90[CPY], users/base/usiniv.F[DEL],
	  users/base/usiniv.f90[CPY], users/base/uskpdc.F[DEL],
	  users/base/uskpdc.f90[CPY], users/base/usmodg.F[DEL],
	  users/base/usmodg.f90[CPY], users/base/usmpst.F[DEL],
	  users/base/usmpst.f90[CPY], users/base/usnpst.F[DEL],
	  users/base/usnpst.f90[CPY], users/base/usphyv.F[DEL],
	  users/base/usphyv.f90[CPY], users/base/usproj.F[DEL],
	  users/base/usproj.f90[CPY], users/base/uspt1d.F[DEL],
	  users/base/uspt1d.f90[CPY], users/base/usruet.F[DEL],
	  users/base/usruet.f90[CPY], users/base/ussmag.F[DEL],
	  users/base/ussmag.f90[CPY], users/base/usstru.F[DEL],
	  users/base/usstru.f90[CPY], users/base/ussyrc.F[DEL],
	  users/base/ussyrc.f90[CPY], users/base/usthht.F[DEL],
	  users/base/usthht.f90[CPY], users/base/ustmgr.F[DEL],
	  users/base/ustmgr.f90[CPY], users/base/ustske.F[DEL],
	  users/base/ustske.f90[CPY], users/base/ustskw.F[DEL],
	  users/base/ustskw.f90[CPY], users/base/ustsma.F[DEL],
	  users/base/ustsma.f90[CPY], users/base/ustsns.F[DEL],
	  users/base/ustsns.f90[CPY], users/base/ustsri.F[DEL],
	  users/base/ustsri.f90[CPY], users/base/ustssc.F[DEL],
	  users/base/ustssc.f90[CPY], users/base/ustsv2.F[DEL],
	  users/base/ustsv2.f90[CPY], users/base/usvima.F[DEL],
	  users/base/usvima.f90[CPY], users/base/usvist.F[DEL],
	  users/base/usvist.f90[CPY], users/base/usvort.F[DEL],
	  users/base/usvort.f90[CPY], users/base/usvpst.F[DEL],
	  users/base/usvpst.f90[CPY], users/cfbl/uscfcl.F[DEL],
	  users/cfbl/uscfcl.f90[CPY], users/cfbl/uscfpv.F[DEL],
	  users/cfbl/uscfpv.f90[CPY], users/cfbl/uscfth.F[DEL],
	  users/cfbl/uscfth.f90[CPY], users/cfbl/uscfx1.F[DEL],
	  users/cfbl/uscfx1.f90[CPY], users/cfbl/uscfx2.F[DEL],
	  users/cfbl/uscfx2.f90[CPY], users/cfbl/uscfxi.F[DEL],
	  users/cfbl/uscfxi.f90[CPY], users/cogz/usd3p1.F[DEL],
	  users/cogz/usd3p1.f90[CPY], users/cogz/usd3pc.F[DEL],
	  users/cogz/usd3pc.f90[CPY], users/cogz/usd3pi.F[DEL],
	  users/cogz/usd3pi.f90[CPY], users/cogz/usebu1.F[DEL],
	  users/cogz/usebu1.f90[CPY], users/cogz/usebuc.F[DEL],
	  users/cogz/usebuc.f90[CPY], users/cogz/usebui.F[DEL],
	  users/cogz/usebui.f90[CPY], users/cogz/uslwc1.F[DEL],
	  users/cogz/uslwc1.f90[CPY], users/cogz/uslwcc.F[DEL],
	  users/cogz/uslwcc.f90[CPY], users/cogz/uslwci.F[DEL],
	  users/cogz/uslwci.f90[CPY], users/cplv/uscpcl.F[DEL],
	  users/cplv/uscpcl.f90[CPY], users/cplv/uscpi1.F[DEL],
	  users/cplv/uscpi1.f90[CPY], users/cplv/uscpiv.F[DEL],
	  users/cplv/uscpiv.f90[CPY], users/cplv/uscpl1.F[DEL],
	  users/cplv/uscpl1.f90[CPY], users/cplv/uscplc.F[DEL],
	  users/cplv/uscplc.f90[CPY], users/ctwr/usctcl.F[DEL],
	  users/ctwr/usctcl.f90[CPY], users/ctwr/usctdz.F[DEL],
	  users/ctwr/usctdz.f90[CPY], users/ctwr/uscti1.F[DEL],
	  users/ctwr/uscti1.f90[CPY], users/ctwr/usctiv.F[DEL],
	  users/ctwr/usctiv.f90[CPY], users/elec/uselcl.F[DEL],
	  users/elec/uselcl.f90[CPY], users/elec/uselen.F[DEL],
	  users/elec/uselen.f90[CPY], users/elec/useli1.F[DEL],
	  users/elec/useli1.f90[CPY], users/elec/useliv.F[DEL],
	  users/elec/useliv.f90[CPY], users/elec/uselph.F[DEL],
	  users/elec/uselph.f90[CPY], users/elec/uselrc.F[DEL],
	  users/elec/uselrc.f90[CPY], users/elec/usetcl.F[DEL],
	  users/elec/usetcl.f90[CPY], users/fuel/usfucl.F[DEL],
	  users/fuel/usfucl.f90[CPY], users/fuel/usfui1.F[DEL],
	  users/fuel/usfui1.f90[CPY], users/fuel/usfuiv.F[DEL],
	  users/fuel/usfuiv.f90[CPY], users/lagr/uslabo.F[DEL],
	  users/lagr/uslabo.f90[CPY], users/lagr/usladp.F[DEL],
	  users/lagr/usladp.f90[CPY], users/lagr/uslaed.F[DEL],
	  users/lagr/uslaed.f90[CPY], users/lagr/uslaen.F[DEL],
	  users/lagr/uslaen.f90[CPY], users/lagr/uslafe.F[DEL],
	  users/lagr/uslafe.f90[CPY], users/lagr/uslag1.F[DEL],
	  users/lagr/uslag1.f90[CPY], users/lagr/uslag2.F[DEL],
	  users/lagr/uslag2.f90[CPY], users/lagr/uslain.F[DEL],
	  users/lagr/uslain.f90[CPY], users/lagr/uslapr.F[DEL],
	  users/lagr/uslapr.f90[CPY], users/lagr/uslaru.F[DEL],
	  users/lagr/uslaru.f90[CPY], users/lagr/uslast.F[DEL],
	  users/lagr/uslast.f90[CPY], users/lagr/uslatc.F[DEL],
	  users/lagr/uslatc.f90[CPY], users/lagr/uslatp.F[DEL],
	  users/lagr/uslatp.f90[CPY], users/pprt/usppmo.F[DEL],
	  users/pprt/usppmo.f90[CPY], users/rayt/usray1.F[DEL],
	  users/rayt/usray1.f90[CPY], users/rayt/usray2.F[DEL],
	  users/rayt/usray2.f90[CPY], users/rayt/usray3.F[DEL],
	  users/rayt/usray3.f90[CPY], users/rayt/usray4.F[DEL],
	  users/rayt/usray4.f90[CPY], users/rayt/usray5.F[DEL],
	  users/rayt/usray5.f90[CPY]: Conversion of all the Fortran files
	  (headers included) form fixed F77 format to free f90 format. A
	  small-case extension is used so that one can, in the future, skip
	  the preprocessing stage.

2009-02-23 17:42  Code_Saturne development team <saturne-support@edf.fr>

	* [r720] ChangeLog, bin/macros_Blue_Gene_L.mk,
	  bin/macros_Blue_Gene_P.mk, bin/macros_Darwin.mk: Minor
	  corrections in file list optimization.

2009-02-23 16:34  Code_Saturne development team <saturne-support@edf.fr>

	* [r719] ChangeLog, src/base/cs_renumber.c: Correction in the mesh
	  structure update when renumbering cells.

2009-02-23 16:22  Code_Saturne development team <saturne-support@edf.fr>

	* [r718] ChangeLog, src/base/cs_mesh_halo.c,
	  src/ctwr/cs_ctwr_halo.c: Minor modifications on halos routines
	  (no impact).

2009-02-23 16:21  Code_Saturne development team <saturne-support@edf.fr>

	* [r717] ChangeLog, users/base/usini1.F: Correction for tests based
	  on IVERIF variable in usini1.F, bug introduced when merging the
	  different verification tests.

2009-02-23 16:19  Code_Saturne development team <saturne-support@edf.fr>

	* [r716] ChangeLog, include/base/cs_mesh_select.h[DEL],
	  src/base/cs_ast_coupling.c, src/base/cs_mesh_select.c[DEL],
	  src/base/cs_syr_coupling.c: Remove unused cs_mesh_select feature
	  (replaced by fvm_selector for SYRTHES coupling).

2009-02-23 15:44  Code_Saturne development team <saturne-support@edf.fr>

	* [r715] ChangeLog, bin/Makefile, bin/macros_Blue_Gene_L.mk,
	  bin/macros_Blue_Gene_P.mk, bin/macros_Darwin.mk,
	  bin/macros_Linux.mk, bin/macros_Linux_Ch.mk,
	  bin/macros_Linux_IA64.mk, bin/macros_Linux_x86_64.mk,
	  bin/macros_SX9.mk, src/base/bilsc2.F, src/base/cs_sles.c,
	  src/base/divmas.F, src/base/gradmc.F, src/base/gradrc.F,
	  src/base/matrdt.F, src/base/matrix.F, src/base/promav.F,
	  src/base/proxav.F, src/base/recvmc.F, src/base/tstvec.F,
	  src/base/vissec.F, src/cfbl/cfbsc2.F, src/cfbl/cfbsc3.F,
	  src/cfbl/cfdivs.F, src/cplv/cplym1.F: Porting to NEC SX9: replace
	  VPP 5000 vectorization directives by NEC ones (!OCL... =>
	  !CDIR...) and add a specific macros file. Also add new AR and
	  ARFLAGS variables in the Makefile so that one can specify the
	  archiver. Thanks to HLRS for the modifications.

2009-02-23 13:22  Code_Saturne development team <saturne-support@edf.fr>

	* [r714] ChangeLog, po/fr.po, src/base/cs_opts.c: Add a --version
	  option to get Code_Saturne version number.

2009-02-23 13:01  Code_Saturne development team <saturne-support@edf.fr>

	* [r713] ChangeLog, bin/Makefile, bin/cs_create, bin/cs_info,
	  sbin/install: Install the user subroutines and the documentation
	  within a standard "arch/$NOM_ARCH/share" directory. Minor
	  corrections in these scripts as well.

2009-02-23 12:53  Code_Saturne development team <saturne-support@edf.fr>

	* [r712] ChangeLog, src/base/cs_proxy_comm.c: Typo in macro use
	  (CS_ARCH_Linux instead of _CS_ARCH_Linux).

2009-02-18 17:45  Code_Saturne development team <saturne-support@edf.fr>

	* [r711] ChangeLog, src/cogz/pdfpp4.F: Minor modifications to make
	  Fortran files to be compiled as Fortran 95 source files after
	  conversion.

2009-02-18 16:44  Code_Saturne development team <saturne-support@edf.fr>

	* [r710] ChangeLog, src/pprt/memppt.F: Minor modifications to make
	  Fortran files to be compiled as Fortran 95 source files after
	  conversion.

2009-02-18 16:34  Code_Saturne development team <saturne-support@edf.fr>

	* [r709] ChangeLog, src/base/causta.F, src/base/crstgr.F,
	  src/base/divrij.F, src/base/inimas.F, src/base/projts.F,
	  src/cplv/cpphy2.F, src/elec/elphyv.F, src/elec/eltssc.F: Minor
	  modifications to make Fortran files to be compiled as Fortran 95
	  source files after conversion.

2009-02-17 13:42  Code_Saturne development team <saturne-support@edf.fr>

	* [r708] ChangeLog, bin/runcase.help, doc/USER/latex/saturne1.tex,
	  include/base/cs_opts.h, po/fr.po, src/base/caltri.F,
	  src/base/cs_main.c, src/base/cs_opts.c, src/base/initi1.F,
	  src/base/memtri.F, src/base/modini.F, src/base/testel.F: Change
	  the mesh quality verification behaviour. The different gradient
	  calculation modes are now done in one pass. Thus, only one option
	  remains for the command line (-q, with no sub-option).

2009-02-16 14:58  Code_Saturne development team <saturne-support@edf.fr>

	* [r707] ChangeLog, include/base/cs_base.h,
	  include/base/cs_sat_coupling.h, src/base/cs_ast_coupling.c,
	  src/base/cs_base.c, src/base/cs_benchmark.c,
	  src/base/cs_coupling.c, src/base/cs_ecs_messages.c,
	  src/base/cs_ext_neighborhood.c, src/base/cs_gradient.c,
	  src/base/cs_grid.c, src/base/cs_gui.c, src/base/cs_halo.c,
	  src/base/cs_io.c, src/base/cs_main.c, src/base/cs_mesh.c,
	  src/base/cs_mesh_halo.c, src/base/cs_mesh_quality.c,
	  src/base/cs_mesh_warping.c, src/base/cs_multigrid.c,
	  src/base/cs_opts.c, src/base/cs_parall.c, src/base/cs_perio.c,
	  src/base/cs_post.c, src/base/cs_proxy_comm.c,
	  src/base/cs_renumber.c, src/base/cs_restart.c,
	  src/base/cs_sat_coupling.c, src/base/cs_sles.c,
	  src/base/cs_syr3_comm.c, src/base/cs_syr3_coupling.c,
	  src/base/cs_syr3_messages.c, src/base/cs_syr4_coupling.c,
	  src/base/cs_tpar1d.c, src/base/cs_ventil.c, src/ctwr/cs_ctwr.c,
	  src/ctwr/cs_ctwr_halo.c, src/lagr/cs_lagr_perio.c: Change
	  cs_glob_base_nbr, cs_glob_base_rang and cs_glob_base_mpi_comm in
	  cs_glob_n_ranks, cs_glob_rank_id and cs_glob_mpi_comm (resp.).

2009-02-16 14:16  Code_Saturne development team <saturne-support@edf.fr>

	* [r706] ChangeLog, include/base/cs_ast_coupling.h,
	  src/base/cs_ast_coupling.c, src/base/cs_main.c,
	  src/base/strdep.F, src/base/strini.F, src/base/strpre.F: Fix
	  Code_Aster coupling for sequential calculations.

2009-02-16 11:33  Code_Saturne development team <saturne-support@edf.fr>

	* [r705] ChangeLog, po/POTFILES.in, po/fr.po: Update of french
	  dictionnary and list of gettextized files.

2009-02-16 11:10  Code_Saturne development team <saturne-support@edf.fr>

	* [r704] bin/runcase_mpi_env: Bug correction in the MPI environment
	  guess script.

2009-02-16 11:10  Code_Saturne development team <saturne-support@edf.fr>

	* [r703] ChangeLog: Bug correction in the MPI environment guess
	  script.

2009-02-16 11:09  Code_Saturne development team <saturne-support@edf.fr>

	* [r702] ChangeLog, src/base/cs_io.c: Bug correction when closing
	  files with MPI I/O enabled.

2009-02-16 10:54  Code_Saturne development team <saturne-support@edf.fr>

	* [r701] ChangeLog, include/base/cs_post.h, src/base/cs_post.c: The
	  kernel is now able to post-process edges for a given mesh via the
	  PSTEDG subroutine. This functionnality is thus removed from the
	  preprocessor.

2009-02-16 10:48  Code_Saturne development team <saturne-support@edf.fr>

	* [r700] ChangeLog, include/base/cs_post.h,
	  include/base/cs_prototypes.h, src/base/cs_main.c,
	  src/base/cs_mesh_quality.c, src/base/cs_mesh_solcom.c,
	  src/base/cs_mesh_warping.c, src/base/cs_multigrid.c,
	  src/base/cs_post.c, src/base/cs_syr3_coupling.c,
	  src/base/cs_syr4_coupling.c, src/ctwr/cs_ctwr.c: English
	  translation of the post-processing management.

2009-02-16 10:35  Code_Saturne development team <saturne-support@edf.fr>

	* [r699] src/base/cs_restart.c[CPY], src/base/cs_suite.c[DEL]:
	  Rename cs_suite.[hc] files in cs_restart.[hc] (step 2)

2009-02-16 10:34  Code_Saturne development team <saturne-support@edf.fr>

	* [r698] ChangeLog, include/base/cs_restart.h[CPY],
	  include/base/cs_suite.h[DEL], src/base/cs_main.c,
	  src/base/cs_suite.c, src/base/cs_tpar1d.c: Rename cs_suite.[hc]
	  files in cs_restart.[hc]

2009-02-16 10:16  Code_Saturne development team <saturne-support@edf.fr>

	* [r697] ChangeLog, src/base/cs_suite.c: Wrong commit for
	  cs_suite.c

2009-02-16 10:09  Code_Saturne development team <saturne-support@edf.fr>

	* [r696] ChangeLog, include/base/cs_suite.h, src/base/cs_main.c,
	  src/base/cs_suite.c, src/base/cs_tpar1d.c: English translation of
	  the restart files management. Also add a basic timer for the
	  restart files process.

2009-02-16 09:59  Code_Saturne development team <saturne-support@edf.fr>

	* [r695] ChangeLog, include/base/cs_mesh_solcom.h,
	  src/base/cs_main.c, src/base/cs_mesh_solcom.c: English
	  translation of the SolCom format reader.

2009-02-16 09:36  Code_Saturne development team <saturne-support@edf.fr>

	* [r694] ChangeLog, include/base/cs_halo.h, include/base/cs_mesh.h,
	  include/base/cs_post.h, include/base/cs_prototypes.h,
	  src/base/cs_ext_neighborhood.c, src/base/cs_halo.c,
	  src/base/cs_mesh.c, src/base/cs_post.c, src/base/cs_renumber.c,
	  src/base/numvec.F, src/base/tstvec.F: Add cell renumbering
	  capability and re-organize face renumbering process.

2009-02-13 18:16  Code_Saturne development team <saturne-support@edf.fr>

	* [r693] ChangeLog, src/base/cs_coupling.c: SYRTHES coupling change
	  set (missing file).

2009-02-13 18:11  Code_Saturne development team <saturne-support@edf.fr>

	* [r692] ChangeLog, src/base/cs_multigrid.c, src/base/ecrava.F,
	  src/base/ecrlis.F, users/base/usvpst.F: Better english and french

2009-02-13 18:10  Code_Saturne development team <saturne-support@edf.fr>

	* [r691] ChangeLog, bin/cs_profile: Upgrade to syr_cs 2.3.0

2009-02-13 18:04  Code_Saturne development team <saturne-support@edf.fr>

	* [r690] ChangeLog, include/base/cs_syr3_comm.h,
	  include/base/cs_syr3_coupling.h, include/base/cs_syr3_messages.h,
	  include/base/cs_syr4_coupling.h, include/base/cs_syr_coupling.h,
	  src/base/caltri.F, src/base/cs_syr3_comm.c,
	  src/base/cs_syr3_coupling.c, src/base/cs_syr3_messages.c,
	  src/base/cs_syr4_coupling.c, src/base/cs_syr_coupling.c: SYRTHES
	  coupling change set. Correction for SYRTHES 4 coupling and
	  corresponding modifications for SYRTHES 3 coupling).

2009-02-13 17:56  Code_Saturne development team <saturne-support@edf.fr>

	* [r689] ChangeLog, doc/USER/latex/saturne1.tex,
	  doc/USER/latex/user.tex, doc/style/csdoc.sty: Documentation
	  update (mainly the mesh formats documentation that have been
	  removed from the preprocessor manual).

2009-02-13 17:25  Code_Saturne development team <saturne-support@edf.fr>

	* [r688] COMPATIBILITY, ChangeLog, bin/macros_Blue_Gene_L.mk,
	  bin/macros_Blue_Gene_P.mk, bin/macros_Darwin.mk,
	  bin/macros_Linux.mk, bin/macros_Linux_Ch.mk,
	  bin/macros_Linux_IA64.mk, bin/macros_Linux_x86_64.mk,
	  src/base/cs_suite.c: From now on, use
	  fvm_part_to_block/fvm_block_to_part for restart files
	  writing/reading. Upgrade to FVM version 0.13.0

2009-02-13 17:17  Code_Saturne development team <saturne-support@edf.fr>

	* [r687] ChangeLog, src/base/cs_gui.c: Free more memory (less
	  valgrind errors...).

2009-02-13 17:06  Code_Saturne development team <saturne-support@edf.fr>

	* [r686] ChangeLog, src/base/cs_benchmark.c: Minor correction and
	  new matrix.vector product tests.

2009-02-13 17:03  Code_Saturne development team <saturne-support@edf.fr>

	* [r685] ChangeLog, src/base/cs_base.c: Correction in the MPI
	  initialization in case of coupling.

2009-02-13 16:59  Code_Saturne development team <saturne-support@edf.fr>

	* [r684] ChangeLog, include/base/cs_base.h, src/base/cs_matrix.c:
	  CS_MIN/MAX macros are now consistant with Bull's ones.

2009-02-13 16:54  Code_Saturne development team <saturne-support@edf.fr>

	* [r683] ChangeLog, include/base/cs_calcium.h,
	  src/base/cs_ast_coupling.c, src/base/cs_calcium.c,
	  src/base/cs_main.c: Code_Aster coupling update (YACS side).

2009-02-13 15:20  Code_Saturne development team <saturne-support@edf.fr>

	* [r682] ChangeLog, doc/TUTORIAL/latex/case5.tex,
	  doc/style/csdoc.sty: Minor corrections and updates in the
	  documentation.

2009-02-13 15:16  Code_Saturne development team <saturne-support@edf.fr>

	* [r681] ChangeLog: Minor changes in the 1D-profile generation iva
	  the GUI.

2009-02-13 13:15  Code_Saturne development team <saturne-support@edf.fr>

	* [r680] src/base/cs_gui.c: Minor changes in the 1D-profile
	  generation iva the GUI.

2009-02-13 10:41  Code_Saturne development team <saturne-support@edf.fr>

	* [r679] ChangeLog, bin/macros_Blue_Gene_L.mk,
	  bin/macros_Blue_Gene_P.mk: Upgrade to new compilers, drivers and
	  librairies on BG/L and BG/P architecture.

2009-02-13 10:18  Code_Saturne development team <saturne-support@edf.fr>

	* [r678] ChangeLog, bin/check_consistency: Add consistency checks
	  for the atmospheric and cooling towers modules.

2009-02-13 10:11  Code_Saturne development team <saturne-support@edf.fr>

	* [r677] ChangeLog, bin/runcase_syrthes: Add the executable bit for
	  runcase_syrthes.

2009-02-02 15:32  Code_Saturne development team <saturne-support@edf.fr>

	* [r676] ChangeLog, bin/cs_create, src/base/cs_tpar1d.c: Minor
	  correction in help output.

2009-02-02 15:30  Code_Saturne development team <saturne-support@edf.fr>

	* [r675] ChangeLog, src/base/cs_tpar1d.c: Fix a bug when no wall is
	  present on a domain for the 1D wall thermal module.

