* 11/01/2010 - David Monfort <david.monfort@edf.fr>
  Update gettext file for French translation.
  modified file:
    po/fr.po

* 11/01/2010 - Bruno Audebert <bruno.audebert@edf.fr>
  Add new interpolation schemes to code/code coupling for
  rotor/stator interaction modelling.
  modified routines:
    include/base/cplsat.h
    src/base/bilsc2.f90
    src/base/csc2cl.f90
    src/base/cscpfb.f90
    src/base/iniini.f90
    src/base/resolp.f90

* 11/01/2010 - David Monfort <david.monfort@edf.fr>
  Minor fixes to account for the cs to code_saturne renaming.
  renamed file:
   doc/manpages/cs.1
  modified script:
   extras/installer/install_saturne.py
   Makefile.am

* 11/01/2010 - David Monfort <david.monfort@edf.fr>
  Update Code_Saturne prerequisites in the installer script.
  modified script:
   extras/installer/install_saturne.py

* 08/01/2010 - Maya Milliez <maya.milliez@edf.fr>
  Improve robustness for wall boundary conditions for atmospheric modelling.
  modified routine:
    src/atmo/atmcls.f90

* 06/01/2010 - David Monfort <david.monfort@edf.fr>
  Fix a an issue when returning the number of code/code couplings.
  Code cleaning to remove some compiler warnings.
  modified routine:
    src/base/cs_sat_coupling.c

* 21/12/2009 - David Monfort <david.monfort@edf.fr>
  Make code/code coupling compliant with the new discovering
  mechanism for coupling applications.
  modified script:
    src/base/Makefile.am
  added routine:
    src/base/cs_sat_f2c.f90
  modified routines:
    include/base/cs_sat_coupling.h
    src/apps/cs_solver.c
    src/base/cscloc.f90
    src/base/cs_sat_coupling.c
    src/base/initi1.f90
    src/base/tridim.f90
    users/base/ussatc.f90

* 21/12/2009 - Alexandre Douce <alexandre.douce@edf.fr>
  Add real-life examples for fluid properties variation laws.
  modidied routine:
    gui/Pages/FluidCharacteristicsView.py

* 21/12/2009 - Alexandre Douce <alexandre.douce@edf.fr>
  Add syntax highlighting for mathematical expression in the interface.
  modified routine:
    gui/Pages/QMeiEditorView.py

* 21/12/2009 - Maya Milliez <maya.milliez@edf.fr>
  Fix an issue in the inlet boundary conditions setup for
  the atmospheric modelling via the graphical interface.
  modified routine:
    src/base/cs_gui.c

* 17/12/2009 - Frank Hulsemann <frank.hulsemann@edf.fr>
  Fix a bug when copying the matrix coefficient in native format.
  No impact in current simulations as the code was never used.
  modified routine:
    src/base/cs_matrix.c

* 17/12/2009 - David Monfort <david.monfort@edf.fr>
  Update the "remove trailing blanks and tabs" script, so that it
  handles the Python interface files and the different runcase scripts.
  Run it once for every file.
  modified script:
    sbin/rmb

* 17/12/2009 - Alexandre Douce <alexandre.douce@edf.fr>
  Minor modifications for GUI integration in the SALOME platform.
  modified routines:
    gui/Pages/OutputControlModel.py
    gui/Pages/SolutionVerifView.py

* 16/12/2009 - David Monfort <david.monfort@edf.fr>
  Fix a bug in BLAS detection, introduced with latest improvement.
  modified script:
    config/cs_blas.m4

* 16/12/2009 - Jérôme Bonelle <jerome.bonelle@edf.fr>
  Add a counter for the numbering of the joinings.
  modified routines:
    include/base/cs_join.h
    include/base/cs_join_util.h
    src/base/cs_join.c
    src/base/cs_join_f2c.f90
    src/base/cs_join_util.c
    users/base/usjoin.f90

* 16/12/2009 - David Monfort <david.monfort@edf.fr>
  Change some regular expressions for syntax checking in the
  interface according to what is done in MEI.
  modified routines:
    gui/Pages/DefineUserScalarsView.py
    gui/Pages/FacesSelectionView.py
    gui/Pages/OutputVolumicVariablesView.py

* 15/12/2009 - David Monfort <david.monfort@edf.fr>
  Remove hyphens and dots from variable names.
  modified routines:
    gui/Base/Toolbox.py
    gui/Base/XMLinitialize.py
    gui/Pages/Boundary.py
    gui/Pages/DefineUserScalarsModel.py
    gui/Pages/FluidCharacteristicsModel.py
    gui/Pages/InitializationModel.py
    gui/Pages/NumericalParamEquationModel.py
    gui/Pages/OutputVolumicVariablesModel.py
    gui/Pages/ThermalScalarModel.py
    gui/Pages/TurbulenceModel.py

* 14/12/2009 - Yvan Fournier <yvan.fournier@edf.fr>
               David Monfort <david.monfort@edf.fr>
  Translation of most of the variables names.
  modified routines:
    src/cfbl/cfprop.f90
    src/cogz/coini1.f90
    users/base/usini1.f90
    users/cogz/uslwc1.f90

* 14/12/2009 - Benoit de Laage de Meux <benoit.de-laage-de-meux@edf.fr>
  Fix a wrong list of arguments for the cfiltr subroutine.
  modified routine:
    users/base/ussmag.f90

* 14/12/2009 - Yvan Fournier <yvan.fournier@edf.fr>
  Improve the Python runcase script for BG runs.
  modified scripts:
    bin/cs_case.py
    bin/runcase.py.in

* 14/12/2009 - Jérôme Bonelle <jerome.bonelle@edf.fr>
  Improve the parallel joining algorithm.
  modified routines:
    include/base/cs_join.h
    include/base/cs_join_intersect.h
    include/base/cs_join_mesh.h
    include/base/cs_join_util.h
    src/base/cs_join.c
    src/base/cs_join_f2c.f90
    src/base/cs_join_intersect.c
    src/base/cs_join_merge.c
    src/base/cs_join_mesh.c
    src/base/cs_join_post.c
    src/base/cs_join_set.c
    src/base/cs_join_split.c
    src/base/cs_join_update.c
    src/base/cs_join_util.c
    users/base/usjoin.f90

* 09/12/2009 - David Monfort <david.monfort@edf.fr>
  Rename the main script in code_saturne to avoid a conflict
  with the cs executable of csound package.
  modified files:
    doc/refcard/refcard.tex
  modified scripts:
    extras/bash_completion/code_saturne
    bin/code_saturne.in
    bin/runcase_syrthes
    bin/SaturneGUI.in
    bin/runcase.in
    bin/cs.in
    Makefile.am

* 08/12/2009 - David Monfort <david.monfort@edf.fr>
  Change the behaviour of the pre-requisites detection by adding
  a check option. When a package is requested, exit with an error
  if the package is not found.
  modified scripts:
    config/cs_bft.m4
    config/cs_blas.m4
    config/cs_fvm.m4
    config/cs_libxml2.m4
    config/cs_mei.m4
    config/cs_mpi.m4

* 03/12/2009 - David Monfort <david.monfort@edf.fr>
  Add a meteo data file example.
  added file:
    data/thch/meteo
  modified scripts:
    bin/runcase.in
    Makefile.am

* 09/25/2009 - David Monfort <david.monfort@edf.fr>
  Update Code_Saturne installer according to the previous commit.
  modified scripts:
    extras/installer/install_saturne.py

* 09/25/2009 - David Monfort <david.monfort@edf.fr>
  Improve package detection handling during configure stage.
  modified scripts:
    config/cs_bft.m4
    config/cs_blas.m4
    config/cs_fvm.m4
    config/cs_libxml2.m4
    config/cs_mei.m4
    config/cs_mpi.m4

* 09/25/2009 - Yvan Fournier <yvan.fournier@edf.fr>
  Fix a wrong size allocation in SYRTHES 4 coupling.
  modified routine:
    src/base/cs_syr4_coupling.c

* 09/24/2009 - David Monfort <david.monfort@edf.fr>
  Fix a bug in BLAS detection when both C and Fortran symbols are present
  in the legacy BLAS library.
  modified script:
    config/cs_blas.m4

* 09/18/2009 - David Monfort <david.monfort@edf.fr>
  Fix several issues with the WALE model.
  modified routines:
    include/base/cstphy.h
    src/base/viswal.f90

* 09/18/2009 - David Monfort <david.monfort@edf.fr>
  Small correction when displaying I-deas file format.
  modified routine:
    gui/Pages/SolutionDomainModel.py

* 09/18/2009 - David Monfort <david.monfort@edf.fr>
  Fix issues in the check_mesh tool (GUI) with CGNS and MED format.
  modified routines:
    gui/Pages/SolutionVerifView.py
    users/base/usini1.f90

* 09/18/2009 - Clarisse Delalondre <clarisse.delalondre@edf.fr>
  Update the dp_ELE file (Argon properties) to account for radiative transfer.
  modified file:
    data/thch/dp_ELE

* 09/18/2009 - Alexandre Douce <alexandre.douce@edf.fr>
  Fix the statistical weight parameter issue in GUI for Lagrangian setup.
  modified routines:
    gui/Pages/LagrangianBoundariesModel.py
    gui/Pages/LagrangianBoundariesView.py

* 09/18/2009 - Alexandre Douce <alexandre.douce@edf.fr>
  Fix a bug when reading/writing dp_FCP thermochemistry file in GUI.
  modified routine:
   gui/Pages/CoalThermoChemistry.py

* 09/18/2009 - Mehdi Ouraou <mehdi.ouraou@edf.fr>
  Fix the velocity computation when setting up a mass flow rate.
  modified routine:
    src/base/cs_gui_boundary_conditions.c

* 09/17/2009 - Alexandre Douce <alexandre.douce@edf.fr>
  Minor modifications.
  modified routines:
    gui/Pages/FluidStructureInteractionModel.py
    gui/Pages/InitializationModel.py

* 09/17/2009 - Alexandre Douce <alexandre.douce@edf.fr>
  Don't automatically set the number of processors to 1 in runcase anymore.
  Enable again the post-processing of SYRTHES coupling faces.
  modified routines:
    gui/Pages/BatchRunningModel.py
    gui/Pages/ConjugateHeatTransferModel.py
    gui/Pages/OutputControlView.py

* 09/17/2009 - Alexandre Douce <alexandre.douce@edf.fr>
  Fix some potential issues in the check_mesh feature and SALOME porting.
  modified routines:
    gui/Base/BrowserView.py
    gui/Base/MainView.py
    gui/Pages/BatchRunningView.py
    gui/Pages/SalomeHandler.py
    gui/Pages/SolutionDomainView.py
    gui/Pages/SolutionVerifView.py

* 09/17/2009 - David Monfort <david.monfort@edf.fr>
  Add LTLIBINTL to cs_solver dependency for linking with libintl library
  needed for gettext support on systems with a libc different from the glibc.
  modified script:
    src/apps/Makefile.am

* 09/11/2009 - David Monfort <david.monfort@edf.fr>
  Change the order of some libraries to link with on BG/P systems.
  modified script:
    config/cs_auto_flags.sh

* 04/11/2009 - David Monfort <david.monfort@edf.fr>
  Merge the user scripts manpages into a single one for the cs script.
  added file:
    doc/manpages/cs.1
  removed files:
    doc/manpages/cs_check_consistency.1
    doc/manpages/cs_check_mesh.1
    doc/manpages/cs_compile.1
    doc/manpages/cs_create.1
    doc/manpages/cs_info.1
    doc/manpages/cs_plot_probes.1
  modified script:
    Makefile.am

* 04/11/2009 - Yvan Fournier <yvan.fournier@edf.fr>
  Small fixes related to user scripts (lib64 rpath detection and
  distutils module not present).
  modified scripts:
    bin/cs_compile.py
    bin/cs.in

* 04/11/2009 - David Monfort <david.monfort@edf.fr>
  Fix some issues in BLAS detection (Intel MKL especially).
  modified script:
    config/cs_blas.m4

* 04/11/2009 - Yvan Fournier <yvan.fournier@edf.fr>
  Different fixes for PGI compilers support.
  modified script:
    config/cs_auto_flags.sh

* 03/11/2009 - Alexandre Douce <alexandre.douce@edf.fr>
  Add head loss setup in the graphical user interface.
  modified routines:
    gui/Base/BrowserView.py
    gui/Base/Toolbox.py
    gui/Base/XMLinitialize.py
    gui/Pages/HeadLossesForm.ui
    gui/Pages/HeadLossesModel.py
    gui/Pages/HeadLossesView.py
    gui/Pages/LocalizationModel.py
    gui/Pages/LocalizationView.py
    include/base/cs_gui.h
    src/base/caltri.f90
    src/base/cs_gui.c
    src/base/tridim.f90

* 03/11/2009 - David Monfort <david.monfort@edf.fr>
  Force 'bash' shell as 'sh' can be more minimalist one (like on Ubuntu
  systems where it is 'dash') and we are using bashism.
  modified script:
    bin/runcase.in

* 03/11/2009 - David Monfort <david.monfort@edf.fr>
  Finalize the implementation of SYRTHES coupling setup via the GUI.
  modified script:
    bin/runcase.in
  modified routines:
    gui/Base/Toolbox.py
    gui/Pages/BatchRunningModel.py
    gui/Pages/FacesSelectionView.py
    gui/Pages/Makefile.am
    gui/Pages/OutputControlView.py
    gui/Pages/SolutionDomainModel.py
    src/base/cs_gui_conjugate_heat_transfer.c
  removed routines:
    gui/Pages/SyrthesForm.ui
    gui/Pages/SyrthesView.py

* 30/10/2009 - Alexandre Douce <alexandre.douce@edf.fr>
  First implementation of the SYRTHES coupling with a GUI setup.
  This functionality is not complete yet, the script has to be adapted
  and the XML reader corrected.
  modified routines:
    gui/Base/BrowserView.py
    gui/Base/Toolbox.py
    gui/Pages/CoalCombustionModel.py
    gui/Pages/ConjugateHeatTransferForm.ui
    gui/Pages/ConjugateHeatTransferModel.py
    gui/Pages/ConjugateHeatTransferView.py
    gui/Pages/Makefile.am
    gui/Pages/ThermalScalarModel.py
    include/base/cs_gui_conjugate_heat_transfer.h
    src/base/cs_gui_conjugate_heat_transfer.c
    src/base/initi1.f90
    src/base/Makefile.am

* 30/10/2009 - David Monfort <david.monfort@edf.fr>
  Add return statement so that the user subroutine are not executed.
  modified routines:
    users/base/uskpdc.f90
    users/base/ustsma.f90
    users/base/usvort.f90

* 30/10/2009 - Alexandre Douce <alexandre.douce@edf.fr>
  Minor correction in the GUI launcher module.
  modified routine:
    gui/cs_gui.py

* 30/10/2009 - Alexandre Douce <alexandre.douce@edf.fr>
  Improve the support for atmospheric flow modelling in the GUI.
  modified routines:
    gui/Pages/AtmosphericFlowsModel.py
    gui/Pages/ReferenceValuesModel.py
    gui/Pages/ReferenceValuesView.py
    gui/Pages/SolutionDomainView.py

* 30/10/2009 - Maya Milliez <maya.milliez@edf.fr>
  Improvement in the atmospheric module initialization.
  modified routines:
    src/atmo/atini1.f90
    src/atmo/atiniv.f90

* 30/10/2009 - David Monfort <david.monfort@edf.fr>
  Fix a bug introduced in a previous commit.
  modified routine:
    src/base/cs_gui_boundary_conditions.c

* 30/10/2009 - David Monfort <david.monfort@edf.fr>
  Fix a wrong array indirection where ra was used instead of ia.
  modified routine:
    src/base/strdep.f90

* 26/10/2009 - Maya Milliez <maya.milliez@edf.fr>
               Bertrand Carissimo <bertrand.carissimo@edf.fr>
  Fix some bugs in the atmospheric flows module. Change the setup of the
  thermal roughness, now defined in rcodcl(ifac,iv(iphas,3).
  modified routines:
    src/atmo/atini1.f90
    src/atmo/atlecm.f90
    src/atmo/atmcls.f90
    src/atmo/atprke.f90
    src/base/clptrg.f90
    src/base/cs_gui_boundary_conditions.c
    src/base/vericl.f90
    users/atmo/usatcl.f90

* 26/10/2009 - David Monfort <david.monfort@edf.fr>
  Fix a minor issue in MED installation parameters.
  modified file:
    extras/installer/install_saturne.py

* 26/10/2009 - Alexandre Douce <alexandre.douce@edf.fr>
  Fix some issues as regards the Lagrangian setup in the GUI.
  modified routines:
    gui/Pages/LagrangianBoundariesModel.py
    gui/Pages/LagrangianBoundariesView.py

* 21/10/2009 - Namane Méchitoua <namane.mechitoua@edf.fr>
  Set the relaxation factor between P0/P1 interpolations to 0.95 in multigrid
  algorithm in order to stabilize the algorithm in some calculations.
  Remove a useless line in addition.
  modified routines:
    src/base/crstgr.f90
    src/base/iniini.f90

* 21/10/2009 - Alexandre Douce <alexandre.douce@edf.fr>
  Fix a bug introduce previously (time-step page no more available).
  modified routine:
    gui/Base/BrowserView.py

* 20/10/2009 - Mehdi Ouraou <mehdi.ouraou@edf.fr>
  Fix a missing sum over the processor for an error indicator.
  modified routine:
    src/pprt/ppcabs.f90

* 20/10/2009 - Mehdi Ouraou <mehdi.ouraou@edf.fr>
  Fix a shift in the definition of post-processing pointer for luminance
  resulting in having the time-step instead of the luminance.
  modified routine:
    src/base/varpos.f90

* 19/10/2009 - Alexandre Douce <alexandre.douce@edf.fr>
  Move explicit source correction in raysca for a correct post-processing.
  This is allowed since combustion modelling always uses enthalpy.
  Correction in the GUI part in addition.
  modified routines:
    gui/Pages/ThermalRadiationModel.py
    src/rayt/raydom.f90
    src/rayt/raysca.f90

* 19/10/2009 - Yvan Fournier <yvan.fournier@edf.fr>
  Minor modification on a test when not enough data are available.
  modified routine:
    src/base/cs_mesh_quantities.c

* 19/10/2009 - David Monfort <david.monfort@edf.fr>
               Yvan Fournier <yvan.fournier@edf.fr>
  Cosmetic modifications.
  modified routines:
    include/base/cs_preprocessor_data.h
    src/base/cs_post.c
    src/base/ecrhis.f90
    users/base/usclim.f90
    users/base/usjoin.f90
    users/base/usproj.f90

* 19/10/2009 - Namane Méchitoua <namane.mechitoua@edf.fr>
  Set the agglomeration limit to 3 instead of 8.
  modified routine:
    src/base/iniini.f90

* 19/10/2009 - Yvan Fournier <yvan.fournier@edf.fr>
  Disable FPE handling also on BlueGene systems.
  modified routine:
    src/apps/cs_solver.c

* 19/10/2009 - David Monfort <david.monfort@edf.fr>
  Add Code_Saturne installer in the extras directory.
  added files:
    extras/installer
    extras/installer/install_saturne.py
    extras/installer/README.txt
    extras/installer/setup

* 19/10/2009 - Alexandre Douce <alexandre.douce@edf.fr>
  Have a consistent behaviour of post-processing option depending on
  the time-step scheme.
  modified routines:
    gui/Base/BrowserView.py
    gui/Pages/OutputVolumicVariablesView.py
    gui/Pages/SteadyManagementModel.py
    gui/Pages/TimeStepModel.py
    include/base/cs_gui.h
    src/base/cs_gui.c
    src/base/iniusi.f90
    src/base/inivar.f90

* 19/10/2009 - Jérôme Bonelle <jerome.bonelle@edf.fr>
  Add a coherency check for interior faces -> cells connectivity.
  modified routine:
    src/base/cs_mesh_halo.c

* 19/10/2009 - Jérôme Bonelle <jerome.bonelle@edf.fr>
  Fix a freeze that could happen in the joining algorithm when
  no face is present after the slice redistribution.
  modified routines:
    src/base/cs_join_intersect.c
    src/base/cs_join_merge.c
    src/base/cs_join_mesh.c
    src/base/cs_join_split.c
    src/base/cs_join_update.c

* 19/10/2009 - Jérôme Bonelle <jerome.bonelle@edf.fr>
  Fix an issue with the joining algorithm where not all the single
  vertices are detected during the selection step.
  modified routines:
    include/base/cs_join_util.h
    src/base/cs_join_util.c

* 16/10/2009 - Jérôme Bonelle <jerome.bonelle@edf.fr>
               Yvan Fournier <yvan.fournier@edf.fr>
  Add a verification for negative volume.
  modified routines:
    include/base/cs_mesh_quantities.h
    src/apps/cs_solver.c
    src/base/cs_mesh_quantities.c

* 16/10/2009 - Jérôme Bonelle <jerome.bonelle@edf.fr>
  Fix a wrong initialization in mesh quality display when the array
  is empty.
  modified routine:
    src/base/cs_mesh_quality.c

* 16/10/2009 - Jérôme Bonelle <jerome.bonelle@edf.fr>
  Fix a bug in the joining algorithm when the number of faces is
  lower than the number of ranks.
  modified routine:
    src/base/cs_join_merge.c

* 16/10/2009 - David Monfort <david.monfort@edf.fr>
  Replace fake variable by a fake array for consistency.
  modified routine:
    src/atmo/mematm.f90

* 16/10/2009 - David Monfort <david.monfort@edf.fr>
  Disable multigrid algorithm for P1 model (radiative transfer).
  modified routine:
    src/rayt/raypun.f90

* 08/10/2009 - Alexandre Douce <alexandre.douce@edf.fr>
  Improve GUI behaviour for a RESTART directory is already present.
  modified routine:
    gui/Pages/StartRestartView.py

* 07/10/2009 - Alexandre Douce <alexandre.douce@edf.fr>
  Fix a bug in the scalar initialization if the user adds a new
  scalar during a restarting calculation.
  modified routines:
    gui/Pages/InitializationView.py
    gui/Pages/LocalizationView.py
    include/base/cs_gui.h
    src/base/cs_gui.c
    src/base/inivar.f90

* 07/10/2009 - Alexandre Douce <alexandre.douce@edf.fr>
  Improvement in the profiles management in GUI.
  modified routine:
    gui/Pages/ProfilesView.py

* 06/10/2009 - Yvan Fournier <yvan.fournier@edf.fr>
  Upgrade to FVM 0.15.0
  modified script:
    configure.ac
  modified routines:
    src/base/cs_io.c
    src/base/cs_preprocessor_data.c
    src/base/cs_restart.c

* 01/10/2009 - Alexandre Douce <alexandre.douce@edf.fr>
  Fix a numbering issue for time averages in GUI.
  Add the choice for a different average number in case of restart.
  modified routines:
    gui/Base/QtPage.py
    gui/Pages/OutputVolumicVariablesModel.py
    gui/Pages/ProfilesModel.py
    gui/Pages/StartRestartModel.py
    gui/Pages/TimeAveragesForm.ui
    gui/Pages/TimeAveragesModel.py
    gui/Pages/TimeAveragesView.py
    src/base/cs_gui.c

* 01/10/2009 - David Monfort <david.monfort@edf.fr>
  Update Copyrights, clean subroutine and function keywords.

* 01/10/2009 - David Monfort <david.monfort@edf.fr>
  Change remaining keywords in lowercase.
  modified files:
    doc/user/saturne1.tex

* 30/09/2009 - Yvan Fournier <yvan.fournier@edf.fr>
  Change all Code_Saturne keywords in lowercase.
  modified files:
    doc/style/csindex.sty
    doc/style/csmacros.sty
    doc/user/saturne1.tex
    doc/user/saturne2.tex

* 30/09/2009 - David Monfort <david.monfort@edf.fr>
  Split two tests that could end in a SIGSEGV when checking array bounds.
  modified routine:
    src/lagr/laghis.f90

* 30/09/2009 - Matthieu Guillaud <matthieu-externe.guillaud@edf.fr>
  Increase the size of work array to the maximum number of particles.
  modified routines:
    src/lagr/lagent.f90
    src/lagr/lagnew.f90
    src/lagr/lagnpr.f90
    src/lagr/lagnwc.f90
    users/lagr/uslain.f90

* 30/09/2009 - Matthieu Guillaud <matthieu-externe.guillaud@edf.fr>
  Add a missing memory-pointer initialization and a missing indirection.
  modified routines:
    src/lagr/lagout.f90
    src/lagr/memla2.f90

* 30/09/2009 - Alexandre Douce <alexandre.douce@edf.fr>
  Read the checkpoint frequency parameter in the XML file.
  modified routines:
    gui/Pages/StartRestartAdvancedDialogForm.ui
    include/base/cs_gui.h
    src/base/cs_gui.c
    src/base/iniusi.f90

* 30/09/2009 - Maya Milliez <maya.milliez@edf.fr>
  Disable humid atmosphere modelling and enable steady/unsteady choice for
  specific physics in GUI (coherent with input verification as well).
  modified routine:
    gui/Pages/AnalysisFeaturesView.py
    

* 30/09/2009 - Alexandre Douce <alexandre.douce@edf.fr>
  Correctly handle the blending factor with SOLU convective scheme in GUI.
  modified routine:
    gui/Pages/NumericalParamEquationModel.py

* 30/09/2009 - Alexandre Douce <alexandre.douce@edf.fr>
  Fix a crash when specifying an inlet with oxydant and coal through the GUI.
  modified routine:
    src/base/cs_gui_boundary_conditions.c

* 29/09/2009 - Alexandre Douce <alexandre.douce@edf.fr>
  Add a box for the automatic/prescribed choice of CS_TMP_PREFIX.
  modified routines:
    gui/Pages/BatchRunningAdvancedOptionsDialogForm.ui
    gui/Pages/BatchRunningView.py

* 29/09/2009 - Alexandre Douce <alexandre.douce@edf.fr>
  Fix a problem related to monitoring points numbering (when the number
  of probes is greater than 10).
  modified routines:
    gui/Pages/OutputControlModel.py
    gui/Pages/OutputControlView.py
    src/base/cs_gui.c

* 29/09/2009 - David Monfort <david.monfort@edf.fr>
  Fix a wrong indirection for temperature/enthalpy conversion
  in case of coupling with SYRTHES or the 1D-wall thermal module.
  modified routines:
    src/base/cou1di.f90
    src/base/coupbi.f90

* 29/09/2009 - Alexandre Douce <alexandre.douce@edf.fr>
  Fix an issue for scalar profiles (label not found in XML files).
  modified routine:
    src/base/cs_gui.c

* 29/09/2009 - Alexandre Douce <alexandre.douce@edf.fr>
  Improve the behaviour of the profiles management in GUI (add a title
  box and automatically set the extension to .dat).
  modified routines:
    gui/Pages/BatchRunningModel.py
    gui/Pages/ProfilesForm.ui
    gui/Pages/ProfilesModel.py
    gui/Pages/ProfilesView.py
    src/base/cs_gui.c

* 29/09/2009 - Mehdi Ouraou <mehdi.ouraou@edf.fr>
  Fix an issue with restart calculations in pulverized coal.
  Improve the initialization of boundary conditions for some variables.
  modified routines:
    src/base/ecrava.f90
    src/base/lecamo.f90
    src/cplv/cpptcl.f90

* 28/09/2009 - Marc Sakiz <marc.sakiz@edf.fr>
  Correctly handle non-uniform/variable time-step post-processing.
  modified routine:
    src/base/modini.f90
    src/base/memtri.f90
    src/base/varpos.f90

* 28/09/2009 - Alexandre Douce <alexandre.douce@edf.fr>
  Make the copy of JANAF depend on the presence of a thermochemistry file.
  modified scripts:
    bin/runcase.in
    bin/runcase.py.in

* 28/09/2009 - Marc Sakiz <marc.sakiz@edf.fr>
  Abort calculation if SST model is used in conjonction with Lagrangian
  two-way coupling modelling.
  modified routine:
    src/base/verini.f90

* 24/09/2009 - David Monfort <david.monfort@edf.fr>
  Fix an issue when averaging variables with the steady algorithm.
  modified routine:
    src/base/varpos.f90

* 24/09/2009 - Yvan Fournier <yvan.fournier@edf.fr>
               David Monfort <david.monfort@edf.fr>
  Update related to French translation.
  modified routines:
    src/ctwr/cs_ctwr.c
    src/base/cs_matrix.c
    src/base/cs_mesh.c
  modified file:
    po/fr.po

* 24/09/2009 - Marc Sakiz <marc.sakiz@edf.fr>
  Improve restart files writing information in the listing.
  modified routines:
    src/base/caltri.f90
    src/base/ecrava.f90

* 23/09/2009 - Yvan Fournier <yvan.fournier@edf.fr>
               David Monfort <david.monfort@edf.fr>
  Merge two tests for a more clearer code.
  modified routine:
    src/base/cs_restart.c

* 23/09/2009 - Yvan Fournier <yvan.fournier@edf.fr>
  Correct error message.
  modified routine:
    src/base/cs_restart.c

* 22/09/2009 - Yvan Fournier <yvan.fournier@edf.fr>
  Add more thorough information on load balancing (mesh-related information).
  modified routine:
    src/base/cs_mesh.c

* 22/09/2009 - David Monfort <david.monfort@edf.fr>
  Avoid a warning on a potential truncature of a header related to particles
  tracking restart file (no impact on current code as variable names are
  shorter than the new maximum length).
  modified routine:
    include/lagr/lagran.h

* 22/09/2009 - Yvan Fournier <yvan.fournier@edf.fr>
  Add warning and error messages when reading restart files.
  modified routine:
    src/base/cs_restart.c

* 22/09/2009 - David Monfort <david.monfort@edf.fr>
  Fix a (very) long-standing bug related to the extrapolation of some physical
  variables (specific heat and laminar viscosity of scalars). Fortunately,
  the defaut value for the theta-scheme has been first order since the
  the beginning (even with a second order scheme in time).
  modified routine:
    src/base/schtmp.f90

* 22/09/2009 - David Monfort <david.monfort@edf.fr>
  Add a residue calculation to avoid uninitialized value (Bi-CGStab).
  modified routine:
    src/base/cs_sles.c

* 22/09/2009 - Yvan Fournier <yvan.fournier@edf.fr>
  English translation for variables and boundary conditions output.
  modified routines:
    src/base/inivar.f90
    src/base/typecl.f90

* 22/09/2009 - Yvan Fournier <yvan.fournier@edf.fr>
  Always use the IBM compiler optimized form for the dot product.
  modified routine:
    src/base/cs_sles.c

* 22/09/2009 - Yvan Fournier <yvan.fournier@edf.fr>
  Merge two MPI_Bcast into a single one for optimization.
  modified routine:
    src/base/cs_parall.c

* 22/09/2009 - Yvan Fournier <yvan.fournier@edf.fr>
  Force the preconditioner to be diagonal on coarse levels for the
  multigrid algorithm (otherwise the algorithm fails because the
  coarse matrices structure is not complete).
  modified routine:
    src/base/cs_mutigrid.c

* 22/09/2009 - Yvan Fournier <yvan.fournier@edf.fr>
  Add an optimized matrix.vector product in CSR format based on MKL.
  modified routine:
    src/base/cs_matrix.c

* 22/09/2009 - Yvan Fournier <yvan.fournier@edf.fr>
               David Monfort <david.monfort@edf.fr>
  Fix a wrong number of inflowing outlet in parallel runs.
  modified routine:
    src/base/condli.f90

* 22/09/2009 - Yvan Fournier <yvan.fournier@edf.fr>
  Add a flush statement test (Fortran 2003) in autoconf pass.
  modified scripts:
    config/cs_fortran.m4
    configure.ac
  modified routine:
    src/base/csflsh.f90

* 22/09/2009 - Yvan Fournier <yvan.fournier@edf.fr>
  Add an optional argument for the partitioner.
  modified script:
    bin/cs_case_domain.py

* 18/09/2009 - David Monfort <david.monfort@edf.fr>
  Add different options to the case creation commmand.
  modified scripts:
    bin/cs_create.py
    extras/bash_completion/code_saturne

* 16/09/2009 - David Monfort <david.monfort@edf.fr>
  Remove redundant information on boundary face conditions
  and elements selectionn based on a given criterion.
  modified routines:
    users/atmo/usatcl.f90
    users/atmo/usativ.f90
    users/base/usalcl.f90
    users/base/usclim.f90
    users/base/usiniv.f90
    users/base/uskpdc.f90
    users/base/usphyv.f90
    users/base/usproj.f90
    users/base/uspt1d.f90
    users/base/ussatc.f90
    users/base/usstru.f90
    users/base/ustske.f90
    users/base/ustskw.f90
    users/base/ustsma.f90
    users/base/ustsns.f90
    users/base/ustsri.f90
    users/base/ustssc.f90
    users/base/ustsv2.f90
    users/base/usvima.f90
    users/base/usvort.f90
    users/cfbl/uscfcl.f90
    users/cfbl/uscfpv.f90
    users/cfbl/uscfxi.f90
    users/cogz/usd3pc.f90
    users/cogz/usd3pi.f90
    users/cogz/usebuc.f90
    users/cogz/usebui.f90
    users/cogz/uslwcc.f90
    users/cogz/uslwci.f90
    users/cplv/uscpcl.f90
    users/cplv/uscpiv.f90
    users/cplv/uscplc.f90
    users/ctwr/usctcl.f90
    users/ctwr/usctiv.f90
    users/elec/uselcl.f90
    users/elec/useliv.f90
    users/elec/uselph.f90
    users/elec/usetcl.f90
    users/fuel/usfucl.f90
    users/fuel/usfuiv.f90
    users/lagr/uslag2.f90
    users/rayt/usray2.f90

* 16/09/2009 - David Monfort <david.monfort@edf.fr>
  Improve the bash completion script.
  modified script:
    extras/bash_completion/code_saturne

* 15/09/2009 - David Monfort <david.monfort@edf.fr>
  Make use of the cs_exec_environment module in cs_plot_probes.
  modified script:
    bin/cs_plot_probes.py

* 15/09/2009 - David Monfort <david.monfort@edf.fr>
  Remove unused MPE code (for MPI instrumentation).
  modified routines:
    include/base/cs_base.h
    src/base/cs_base.c

* 15/09/2009 - Yvan Fournier <yvan.fournier@edf.fr>
  Fix the precision of the bi-CgStab linear solver (revert to
  the old behaviour of version 1.2 as it improves the solver
  converges).
  modified routine:
    src/base/cs_sles.c

* 15/09/2009 - David Monfort <david.monfort@edf.fr>
  Update the COMPATIBILITY file
  modified file:
    COMPATIBILITY

* 15/09/2009 - Yvan Fournier <yvan.fournier@edf.fr>
  Minor modifications related to C89 compilation, code cleaning and
  compilation warnings.
  modified routines:
    include/base/cs_base.h
    include/base/cs_preprocessor_data.h
    include/base/cs_proxy_comm.h
    include/base/cs_sles.h
    libsyrcs/syr_comm.c
    libsyrcs/syr_cs.c
    src/apps/cs_solver.c
    src/base/cs_ast_coupling.c
    src/base/cs_base.c
    src/base/cs_benchmark.c
    src/base/cs_coupling.c
    src/base/cs_ext_neighborhood.c
    src/base/cs_gui_boundary_conditions.c
    src/base/cs_gui_mobile_mesh.c
    src/base/cs_gui_particles.c
    src/base/cs_gui_radiative_transfer.c
    src/base/cs_io.c
    src/base/cs_matrix.c
    src/base/cs_mesh.c
    src/base/cs_mesh_halo.c
    src/base/cs_post.c
    src/base/cs_preprocessor_data.c
    src/base/cs_restart.c
    src/base/cs_sles.c
    src/base/cs_tpar1d.c
    src/base/initi1.f90
    src/base/inivar.f90
    src/base/typecl.f90
    src/ctwr/cs_ctwr_air_props.c
    src/ctwr/cs_ctwr.c
    src/ctwr/cs_ctwr_mesh.c
    src/mati/mtimpi.f90
    users/base/usclim.f90
    users/base/usini1.f90

* 15/09/2009 - David Monfort <david.monfort@edf.fr>
  Improve the bash completion script so that it removes redundant
  or mutually exclusive options.
  modified script:
    extras/bash_completion/code_saturne

* 14/09/2009 - David Monfort <david.monfort@edf.fr>
  Move from getopt to optparse module for command line parsing.
  removed routine:
    gui/Base/CommandLine.py
  modified routines:
    gui/Base/Makefile.am
    gui/cs_gui.py

* 14/09/2009 - David Monfort <david.monfort@edf.fr>
  Add a template for the developper documentation.
  added files:
    doc/developper
    doc/developper/developper.tex
    doc/developper/graphics
    doc/developper/graphics/Makefile.am
    doc/developper/input
    doc/developper/Makefile.am
  modified scripts:
    configure.ac
    doc/Makefile.am

* 14/09/2009 - Marc Sakiz <marc.sakiz@edf.fr>
  Add an option to xmgrace for the window size.
  modified script:
    bin/cs_plot_probes.py

* 14/09/2009 - David Monfort <david.monfort@edf.fr>
  Make use of the cs_exec_environment instead of subprocess module.
  modified script:
    bin/cs_check_mesh.py

* 14/09/2009 - David Monfort <david.monfort@edf.fr>
  Remove "have" function as it may not be found.
  modified script:
    extras/bash_completion/code_saturne

* 14/09/2009 - David Monfort <david.monfort@edf.fr>
  Add a bash completion script for cs and cs_solver.
  added script:
    extras/bash_completion/code_saturne
  modified script:
    Makefile.am

* 13/09/2009 - Yvan Fournier <yvan.fournier@edf.fr>
  Adapt the code that waits for a MPI_Abort in case of errors. There
  should not be now any spurious error file.
  modified routine:
    src/base/cs_base.c

* 13/09/2009 - Yvan Fournier <yvan.fournier@edf.fr>
  Add a Fortran wrapper for MPI_Barrier (mainly for debugging purpose).
  modified routines:
    include/base/cs_parall.h
    src/base/cs_parall.h

* 13/09/2009 - Yvan Fournier <yvan.fournier@edf.fr>
  The space-filling-curve algorithm for domain splitting is activated
  by default. A Fortran subroutine is available to change this choice.
  modified routines:
    include/base/cs_preprocessor_data.h
    src/base/cs_preprocessor_data.c

* 13/09/2009 - Yvan Fournier <yvan.fournier@edf.fr>
  Add a mpi_io option to the command line so that one can use FVM
  compiled with MPI/IO support and decide at runtime which type of I/O
  to use.
  modified routines:
    include/base/cs_io.h
    include/base/cs_opts.h
    src/apps/cs_solver.c
    src/base/cs_io.c
    src/base/cs_opts.c
    src/base/cs_preprocessor_data.c

* 11/09/2009 - David Monfort <david.monfort@edf.fr>
  Change FVM and BFT CPPFLAGS order so that one can find FVM headers,
  before BFT ones (and same trick for MEI).
  modified scripts:
    src/apps/Makefile.am
    src/base/Makefile.am
    src/ctwr/Makefile.am
    src/lagr/Makefile.am

* 11/09/2009 - Yvan Fournier <yvan.fournier@edf.fr>
  Add a Fortran m4 file for module detection and further tests (e.g.
  flush subroutine detection).
  added script:
    config/cs_fortran.m4
  modified script:
    Makefile.am

* 11/09/2009 - Yvan Fournier <yvan.fournier@edf.fr>
  Merge the preprocessor user guide into Code_Saturne user guide.
  added files:
    doc/user/graphics/join_tolerance.fig
    doc/user/graphics/join_periodic.fig
  modified files:
    doc/style/csmacros.sty
    doc/user/graphics/Makefile.am
    doc/user/saturne1.tex

* 11/09/2009 - Yvan Fournier <yvan.fournier@edf.fr>
               David Monfort <david.monfort@edf.fr>
  Add a new Python runcase script with more code coupling capabilities
  and more aware of MPI and batch environments.
  Add an option to the create command to use this script and relax the
  constraint on the upppercase name of the study.
  Some other modifications relative to scripts.
  added scripts:
    bin/cs_case_domain.py
    bin/cs_case.py
    bin/cs_exec_environment.py
    bin/runcase.py.in
  removed script:
    bin/runcase_coupling.in
  modified scripts:
    bin/cs_compile.py
    bin/cs_create.py
    configure.ac
    Makefile.am

* 11/09/2009 - David Monfort <david.monfort@edf.fr>
  Disable by default the multigrid algorithm for the potential vector
  in MHD as it does not seem to work correctly.
  modified routine:
    src/elec/elini1.f90

* 10/09/2009 - Yvan Fournier <yvan.fournier@edf.fr>
               David Monfort <david.monfort@edf.fr>
  Modifications to how the config info are handled to avoid potential
  issues (split configuration info into build/install info).
  added scripts:
    bin/cs_config_build.py.in
  modified scripts:
    bin/cs_compile.py
    bin/cs_config.py.in
    bin/cs.in
    configure.ac
    Makefile.am

* 10/09/2009 - Yvan Fournier <yvan.fournier@edf.fr>
  Updating Itanium compiler options for hot optimizations.
  modified scripts:
    config/cs_auto_flags.sh

* 10/09/2009 - Yvan Fournier <yvan.fournier@edf.fr>
  Minor adaptations in the joining algorithm code, relative to
  porting to MPI1 and code cleaning.
  modified routine:
    include/base/cs_join_util.h
    src/base/cs_join.c
    src/base/cs_join_intersect.c
    src/base/cs_join_merge.c
    src/base/cs_join_mesh.c
    src/base/cs_join_split.c
    src/base/cs_join_update.c
    src/base/cs_join_util.c

* 09/09/2009 - Jérôme Bonelle <jerome.bonelle@edf.fr>
  Fix an issue in the mesh cleaning stage of the joining algorithm.
  modified routine:
    src/base/cs_join_mesh.c

* 09/09/2009 - Jérôme Bonelle <jerome.bonelle@edf.fr>
  Fix a memory leak in case of conforming joining.
  modified routine:
    src/base/cs_join.c

* 09/09/2009 - Jérôme Bonelle <jerome.bonelle@edf.fr>
  Fix a bug in "single element" building.
  modified routine:
    src/base/cs_join_util.c

* 09/09/2009 - Jérôme Bonelle <jerome.bonelle@edf.fr>
  Fix a blocking problem when compiling without MPI support.
  modified routine:
    src/base/cs_join_util.c

* 03/09/2009 - Yvan Fournier <yvan.fournier@edf.fr>
  Build improvement in autotools (compiler flags, FVM detection).
  modified scripts:
    bin/cs_config.py.in
    bin/runcase_coupling.in
    bin/runcase.in
    config/cs_auto_flags.sh
    config/cs_fvm.m4
    config/cs_mpi.m4
    config/cs_syrthes.m4

* 03/09/2009 - David Monfort <david.monfort@edf.fr>
  Update the gui version number, accordingly with the cs_config
  information.
  modified scripts:
    bin/cs_config.py.in
    bin/cs_info.py
    gui/cs_gui.py
    gui/Makefile.am
    gui/setup.py
  modified routines:
    gui/Base/Common.py
    gui/Base/MainView.py
    gui/Pages/BatchRunningModel.py
  removed file:
    gui/VERSION

* 03/09/2009 - Yvan Fournier <yvan.fournier@edf.fr>
  Admin scripts improvement.
  modified scripts:
    sbin/backup
    sbin/rmb

* 03/09/2009 - Yvan Fournier <yvan.fournier@edf.fr>
               David Monfort <david.monfort@edf.fr>
  Fix a potential issue when replacing "@strings@" with autoconf,
  it is preferred to use Makefile for this purpose. Also, fix the
  installation path for MEI (mimicking automake process).
  modified scripts:
    bin/cs.in
    config/cs_mei.m4
    configure.ac
    Makefile.am

* 02/09/2009 - David Monfort <david.monfort@edf.fr>
  Fix a wrong indirection for variables name array (with multigrid
  algorithm for purely diffusive scalars).
  modified routine:
    include/base/codits.h

* 02/09/2009 - David Monfort <david.monfort@edf.fr>
  Fix two blocks of commons whose names were identical.
  modified routine:
    include/base/mltgrd.h

* 02/09/2009 - David Monfort <david.monfort@edf.fr>
  Fix a missing test on electric arc modelling that lead in the use
  of an undefined pointer (on imaginary potential).
  modified routines:
    src/elec/elflux.f90

* 02/09/2009 - Clarisse Delalondre <clarisse.delalondre@edf.fr>
  Add a new common so that "elcou" variable can be used ni several
  routines (see uselrc.f90 for the meaning). Change some incorrect
  comments.
  modified routines:
    include/elec/elincl.h
    users/elec/uselen.f90
    users/elec/uselrc.f90

* 31/08/2009 - Boris Arcen <boris-externe.arcen@edf.fr>
  Fix EnSight format output for Lagrangian post-processing.
  Wildcard "stars" symbols were changed in "=" signs by the scripts
  that convert subroutines from fixed to free Fortran form.
  modified routine:
    src/lagr/enswaf.f90

* 31/08/2009 - Mickael Hassanaly <mickael.hassanaly@edf.fr>
  Move the second call to varpos just after the first pass in usray1,
  so that the code is aware of the activation of the radiative transfer
  module while reading thermochemistry files.
  modified routine:
    src/base/iniusi.f90

* 28/08/2009 - David Monfort <david.monfort@edf.fr>
  Fix JANAF file location in user directory. It is now searched in
  installation directory. Do not install it anymore in user data dir.
  modified scripts:
    bin/cs_create.py
    bin/runcase.in

* 28/08/2009 - Yvan Fournier <yvan.fournier@edf.fr>
  Fix a bug when raising false floating-point exceptions on Itanium
  systems due to speculative tests in optimized builds.
  modified routine:
    src/apps/cs_solver.c

* 28/08/2009 - David Monfort <david.monfort@edf.fr>
  Fix a missing call of usray1 in initialization part.
  modified routine:
    src/base/iniusi.f90

* 27/08/2009 - Mickael Hassanaly <mickael.hassanaly@edf.fr>
  Fix a wrong indirection to access radiative fluxes in cell
  properties array.
  modified routine:
    src/base/condli.f90

* 29/07/2009 - Yvan Fournier <yvan.fournier@edf.fr>
  Fix BLAS ESSL link on BlueGene systems.
  modified scripts:
    config/cs_auto_flags.sh
    config/cs_blas.m4

* 29/07/2009 - David Monfort <david.monfort@edf.fr>
  Fix a spurious copy/paste un the runcase(s) scripts.
  modified scripts:
    bin/runcase.in
    bin/runcase_coupling.in

* 29/07/2009 - David Monfort <david.monfort@edf.fr>
  Tagging version 2.0-beta2

* 29/07/2009 - Yvan Fournier <yvan.fournier@edf.fr>
  Update tutorial examples to new Fortran format and Xml model.

* 29/07/2009 - David Monfort <david.monfort@edf.fr>
  Move loop on velocity/pressure system so that it includes
  the boundary conditions calculation.
  modified routines:
    src/base/memnav.f90
    src/base/tridim.f90
    src/base/verini.f90

* 28/07/2009 - Mickael Hassanaly <mickael.hassanaly@edf.fr>
  Use selection mechanism for exchange zone definition.
  added routine:
    src/ctwr/cs_ctwr_f2c.f90
  modified script:
    src/ctwr/Makefile.am
  modified routines:
    include/ctwr/cs_ctwr.h
    src/ctwr/cs_ctwr.c
    src/ctwr/cs_ctwr_mesh.c
    users/ctwr/usctdz.f90

* 28/07/2009 - Mickael Hassanaly <mickael.hassanaly@edf.fr>
  Make temperature difference setup available from uscti1.f90
  modified routines:
    include/ctwr/ctincl.h
    users/ctwr/uscti1.f90

* 28/07/2009 - Mickael Hassanaly <mickael.hassanaly@edf.fr>
               David Monfort <david.monfort@edf.fr>
  Add a global structure in cooling tower module to store common
  fluid properties and gravity vector.
  modified routines:
    include/ctwr/cs_ctwr_air_props.h
    include/ctwr/cs_ctwr.h
    include/ctwr/cs_ctwr_mesh.h
    src/base/cregeo.f90
    src/ctwr/cs_ctwr_air_props.c
    src/ctwr/cs_ctwr.c
    src/ctwr/cs_ctwr_mesh.c
    users/ctwr/usctdz.f90
    users/ctwr/uscti1.f90

* 28/07/2009 - Yvan Fournier <yvan.fournier@edf.fr>
  Replace a goto statement with a do while loop.
  Add an anisotropy criterion calculation for coarse matrices.
  modified routines:
    src/base/autmgr.f90
    src/base/crstgr.f90

* 28/07/2009 - Yvan Fournier <yvan.fournier@edf.fr>
  Comments translation and documentation update.
  modifed files:
    doc/user/saturne1.tex
    src/base/autmgr.f90
    src/base/crstgr.f90
    src/base/iniini.f90
    users/base/ustmgr.f90

* 28/07/2009 - Yvan Fournier <yvan.fournier@edf.fr>
  Minor comments improvement.
  modified files:
    gui/Pages/BatchRunningAdvancedOptionsDialogForm.ui
    gui/Pages/FacesSelectionView.py
    gui/Pages/SolutionVerifForm.ui
    gui/Pages/UserScalarPropertiesForm.ui

* 28/07/2009 - David Monfort <david.monfort@edf.fr>
  Modify libsyrcs code so that one can compile SYRTHES/Code_Saturne
  coupling library without SYRTHES. Information on SYRTHES installation
  and compilers could now be given after Code_Saturne installation.
  modified scripts:
    config/cs_syrthes.m4
    libsyrcs/Makefile.am
    Makefile.am
  modified routines:
    libsyrcs/syr_cs.c
    libsyrcs/syr_defs.h

* 28/07/2009 - David Monfort <david.monfort@edf.fr>
  Change CFLAGS to gnu99 standard for compilation on Cygwin.
  modified script:
    config/cs_auto_flags.sh

* 28/07/2009 - David Monfort <david.monfort@edf.fr>
  Adapt main script so that it handles non standard directory for
  MEI installation (precisely not the same as the kernel).
  modified scripts:
    bin/cs.in
    confi/cs_mei.m4

* 28/07/2009 - Yvan Fournier <yvan.fournier@edf.fr>
  Remove seemingly useless test for restart files writing. All files
  are now written at the same moment (even for the last time-step).
  modified routine:
    src/base/caltri.f90

* 27/07/2009 - David Monfort <david.monfort@edf.fr>
  Add a trick to find MEI Python module when not in standard path.
  modified script:
    bin/cs.in

* 27/07/2009 - Yvan Fournier <yvan.fournier@edf.fr>
  Fix a wrong assumed behaviour on x86_64 and IA64 computers
  in the particles tracking algorithm. One assumed that the internal
  FP precision was always 80 bits (true for FPU x87 coprocessor on
  x86 processors but wrong with SSE optimizations)...
  This is a short term fix (assembler + compiler-dependent option).
  modified scripts:
    config/cs_auto_flags.sh
    src/lagr/Makefile.am
    configure.ac
  modified routine:
    src/lagr/cs_lagr.c

* 27/07/2009 - Jérome Lucas <jerome.lucas@incka.fr>
               David Monfort <david.monfort@edf.fr>
  Add restarting capabilities for cooling-towers module.
  modified routine:
    bin/runcase_coupling.in
    bin/runcase.in
    include/base/entsor.h
    include/base/optcal.h
    include/ctwr/cs_ctwr.h
    src/base/caltri.f90
    src/base/cregeo.f90
    src/base/iniini.f90
    src/ctwr/cs_ctwr.c
    users/ctwr/uscti1.f90

* 23/07/2009 - Jérôme Bonelle <jerome.bonelle@edf.fr>
  Fix an issue in the parallel joining for specific cases.
  modified routines:
    src/base/cs_join_update.c

* 23/07/2009 - Jérome Lucas <jerome.lucas@incka.fr>
  Fix a bug in parallel simulations with cooling-tower module.
  modified routine:
    src/ctwr/cs_ctwr_halo.c

* 23/07/2009 - David Monfort <david.monfort@edf.fr>
  Fix a bug introduced a couple of rev. ago in listing output.
  modified routine:
    src/base/ecrlis.f90

* 23/07/2009 - David Monfort <david.monfort@edf.fr>
  Add Coriolis source terms in standard calculations.
  modified routines:
    include/base/cs_gui.h
    include/base/cstphy.h
    src/base/cs_gui.c
    src/base/impini.f90
    src/base/iniini.f90
    src/base/iniusi.f90
    src/base/preduv.f90
    users/base/usini1.f90

* 23/07/2009 - Jérôme Bonelle <jerome.bonelle@edf.fr>
  Fix an issue in the parallel joining for specific cases.
  modified routines:
    include/base/cs_join_util.h
    src/base/cs_join_update.c
    src/base/cs_join_util.c

* 23/07/2009 - Yvan Fournier <yvan.fournier@edf.fr>
  Translation of the two main user subroutines (initialization
  and boundary conditions).
  modified routines:
    users/base/usclim.f90
    users/base/usini1.f90

* 22/07/2009 - Jérôme Bonelle <jerome.bonelle@edf.fr>
  Fix a test on tolerance in the merge stage.
  modified routine:
    src/base/cs_join_merge.c

* 22/07/2009 - Jérôme Bonelle <jerome.bonelle@edf.fr>
  Fix a possible uninitialized variable in joining algorithm.
  modified routine:
    src/base/cs_join_intersect.c

* 22/07/2009 - Yvan Fournier <yvan.fournier@edf.fr>
  Fix a possible uninitialized variable in benchmark routines.
  modified routine:
    src/base/cs_benchmark.c

* 22/07/2009 - Yvan Fournier <yvan.fournier@edf.fr>
  Fix a possible compilation issue on BlueGene systems.
  modified script:
    config/cs_fvm.m4

* 22/07/2009 - Yvan Fournier <yvan.fournier@edf.fr>
  Fix a long-standing bug when reducing extended neighborhood.
  modified routines:
    include/base/cs_ext_neighborhood.h
    include/base/cs_mesh.h
    src/base/cs_ext_neighborhood.c
    src/base/cs_mesh.c

* 22/07/2009 - Yvan Fournier <yvan.fournier@edf.fr>
  Translation in English of magic strings in user files.
  modified scripts:
    bin/cs_create
    Makefile.am

* 22/07/2009 - Yvan Fournier <yvan.fournier@edf.fr>
               David Monfort <david.monfort@edf.fr>
  Update the translation files.
  modified files:
    po/POTFILES.in
    po/fr.po

* 22/07/2009 - Jérome Lucas <jerome.lucas@incka.fr>
               David Monfort <david.monfort@edf.fr>
  Fix several bugs in cooling-tower module and clean a few lines.
  modified routines:
    include/ctwr/cs_ctwr.h
    src/ctwr/cs_ctwr.c
    src/ctwr/cs_ctwr_halo.c
    src/ctwr/cs_ctwr_mesh.c

* 22/07/2009 - Jérome Lucas <jerome.lucas@incka.fr>
               David Monfort <david.monfort@edf.fr>
  Split main cooling-tower modelling routine in two for a better
  understanding (mainly to move aside the mesh generation).
  added routines:
    include/ctwr/cs_ctwr_mesh.h
    src/ctwr/cs_ctwr_mesh.c
  modified script:
    src/ctwr/Makefile.am
  modified routines:
    include/ctwr/cs_ctwr.h
    src/ctwr/cs_ctwr.c

* 22/07/2009 - David Monfort <david.monfort@edf.fr>
  Move tutorial examples into a dedicated examples directory.

* 22/07/2009 - David Monfort <david.monfort@edf.fr>
  Add missing changes in tridim.f90 for GUI improvement... sorry!
  modified routine:
    src/base/tridim.f90

* 22/07/2009 - Yvan Fournier <yvan.fournier@edf.fr>
  Fix a minor failure in I/O management.
  modified routine:
    src/base/cs_io.c
 
* 22/07/2009 - Sofiane Benhamadouche <sofiane.benhamadouche@edf.fr>
  Do not relax turbulent variables (k/epsilon/omega) in unsteady
  simulations.
  modified routine:
    src/base/modini.f90

* 22/07/2009 - David Monfort <david.monfort@edf.fr>
  Fix a bug in the P1 model for radiative transfer, where a local
  variable "iel" was not defined. 
  modified routine:
    src/rayt/raypun.f90
  
* 22/07/2009 - Alexandre Douce <alexandre.douce@edf.fr>
  Adapt 1d-profiles file to SALOME format for title and labels.
  modified routine:
    src/base/cs_gui.c

* 20/07/2009 - David Monfort <david.monfort@edf.fr>
  Add radiative transfert support for fuel combustion.
  added routine:
    src/fuel/furays.f90
  modified script:
    src/fuel/Makefile.am
  modified routines:
    src/base/covofi.f90

* 20/07/2009 - David Monfort <david.monfort@edf.fr>
  Fix a bug related to oxycombustion.
  modified routine:
    src/cplv/cptehm.f90

* 20/07/2009 - Yvan Fournier <yvan.fournier@edf.fr>
  Minor modifications regarding code and comments cleaning.
  modified routines:
    src/base/cs_join.c
    src/base/cs_join_intersect.c
    src/base/cs_join_merge.c
    src/base/cs_join_mesh.c

* 20/07/2009 - Yvan Fournier <yvan.fournier@edf.fr>
  Add a space-filling-curve algorithm for parallel partitioning.
  This algorithm is based on a Morton curve and can be used by
  setting the variable USE_SFC to 1 in the file.
  modified routine:
    src/base/cs_preprocessor_data.c

* 20/07/2009 - Yvan Fournier <yvan.fournier@edf.fr>
  Change the name of a FVM function accordingly.
  modified routine:
    src/base/cs_restart.c

* 20/07/2009 - David Monfort <david.monfort@edf.fr>
  Scripts fixes and SYRTHES-related improvements.
  modified scripts:
    bin/cs_config.py.in
    bin/cs_create.py
    bin/runcase_coupling.in
    config/cs_syrthes.m4

* 20/07/2009 - Alexandre Douce <alexandre.douce@edf.fr>
  Update particles tracking setup via the graphical interface.
  modified routines:
    gui/Pages/LagrangianBoundariesModel.py
    gui/Pages/LagrangianBoundariesView.py
    gui/Pages/LagrangianOutputForm.ui
    gui/Pages/LagrangianStatisticsForm.ui
    include/base/cs_gui_particles.h
    include/base/cs_gui_radiative_transfer.h
    src/base/cs_gui_boundary_conditions.c
    src/base/cs_gui.c
    src/base/cs_gui_mobile_mesh.c
    src/base/cs_gui_particles.c
    src/base/cs_gui_radiative_transfer.c
    src/base/cs_gui_specific_physics.c
    src/lagr/lagent.f90
    src/lagr/lagopt.f90
    src/rayt/raycli.f90
    users/lagr/uslag1.f90
    users/lagr/uslag2.f90

* 17/07/2009 - David Monfort <david.monfort@edf.fr>
  Merge code/code coupling feature from the development branch.
  This feature is not yet functional as it has not been updated
  to the new communications initialization for codes coupling.
  added routines:
    include/base/cplsat.h
    src/base/csc2cl.f90
    src/base/csc2ts.f90
    src/base/csccel.f90
    src/base/cscfbr.f90
    src/base/cscini.f90
    src/base/cscloc.f90
    src/base/cscpce.f90
    src/base/cscpfb.f90
    src/base/cs_sat_coupling.c
    src/base/memcs1.f90
    src/base/memcs2.f90
    users/base/ussatc.f90
  modified routines:
    include/base/cs_sat_coupling.h
    include/base/paramx.h
    src/base/caltri.f90
    src/base/iniini.f90
    src/base/navsto.f90
    src/base/preduv.f90
    src/base/tridim.f90
    src/base/typecl.f90
  modified script:
    src/base/Makefile.am

* 17/07/2009 - Jérôme Bonelle <jerome.bonelle@edf.fr>
               Yvan Fournier <yvan.fournier@edf.fr>
  Improvements and fixes in the parallel join algorithm.
  modified routines:
    include/base/cs_join_post.h
    include/base/cs_join_update.h
    include/base/cs_join_util.h
    include/base/cs_mesh.h
    include/base/cs_mesh_quantities.h
    include/base/cs_search.h
    src/apps/cs_solver.c
    src/base/cs_join.c
    src/base/cs_join_intersect.c
    src/base/cs_join_merge.c
    src/base/cs_join_mesh.c
    src/base/cs_join_post.c
    src/base/cs_join_set.c
    src/base/cs_join_split.c
    src/base/cs_join_update.c
    src/base/cs_join_util.c
    src/base/cs_mesh.c
    src/base/cs_mesh_quantities.c
    src/base/cs_search.c
    users/base/usjoin.f90

* 16/07/2009 - Yvan Fournier <yvan.fournier@edf.fr>
  Fix the behaviour of memory consumption output in case of error trapping.
  modified routine:
    src/base/cs_base.c

* 16/07/2009 - Alexandre Douce <alexandre.douce@edf.fr>
  Add particles tracking set-up within the graphical interface.
  Code and comments cleaning, plus some fixes related to Xml file
  management.
  added routines:
    gui/Pages/BoundaryConditionsParticlesModel.py
    gui/Pages/BoundaryConditionsParticlesView.py
    include/base/cs_gui_particles.h
    src/base/cs_gui_particles.c
  renamed routines:
    include/base/cs_gui_mobile_mesh.h
    src/base/cs_gui_mobile_mesh.c
  modified script:
    src/base/Makefile.am
  modified routines:
    gui/Base/BrowserView.py
    gui/Base/BrowserView.py
    gui/Base/QtPage.py
    gui/Pages/AnalysisFeaturesView.py
    gui/Pages/BatchRunningModel.py
    gui/Pages/BoundaryConditionsVelocityInletView.py
    gui/Pages/FluidCharacteristicsView.py
    gui/Pages/LagrangianBoundariesForm.ui
    gui/Pages/LagrangianBoundariesView.py
    gui/Pages/Makefile.am
    gui/Pages/MemoryAllocationForm.ui
    gui/Pages/MobileMeshView.py
    gui/Pages/NumericalParamGlobalForm.ui
    gui/Pages/OutputVolumicVariablesModel.py
    gui/Pages/ReferenceValuesModel.py
    gui/Pages/SolutionDomainForm.ui
    gui/Pages/SolutionVerifForm.ui
    gui/Pages/SolutionVerifView.py
    gui/Pages/ThermalRadiationView.py
    gui/Pages/UserArraysForm.ui
    gui/Pages/UserScalarPropertiesView.py
    include/base/cs_gui.h
    include/base/cs_gui_radiative_transfer.h
    src/base/cs_gui_boundary_conditions.c
    src/base/cs_gui.c
    src/base/cs_gui_radiative_transfer.c
    src/base/iniusi.f90
    src/base/Makefile.am
    src/base/strini.f90
    src/lagr/lagent.f90
    src/lagr/lagopt.f90
    src/rayt/raycli.f90
    src/rayt/rayopt.f90

* 16/07/2009 - Yvan Fournier <yvan.fournier@edf.fr>
  Autotools machinery improvement for SYRTHES coupling and BLAS libraries.
  modified scripts:
    config/cs_blas.m4
    config/cs_syrthes.m4
    configure.ac

* 10/07/2009 - Alexandre Douce <alexandre.douce@edf.fr>
  Graphical interface update for radiative transfer modelling.
  modified routines:
    gui/Base/BrowserView.py
    gui/Base/Toolbox.py
    gui/Base/XMLinitialize.py
    gui/Pages/BatchRunningModel.py
    gui/Pages/BoundaryConditionsWallRadiativeTransferView.py
    gui/Pages/Boundary.py
    gui/Pages/CoalCombustionView.py
    gui/Pages/CoalThermoChemistry.py
    gui/Pages/ThermalRadiationModel.py
    gui/Pages/ThermalRadiationView.py
    gui/Pages/TimeStepView.py
    gui/Pages/WelcomeView.py
    include/base/cs_gui_radiative_transfer.h
    include/base/cs_gui_variables.h
    src/base/cs_gui.c
    src/base/cs_gui_radiative_transfer.c
    src/base/iniusi.f90
    src/base/strini.f90
    src/pprt/ppcsca.f90
    src/rayt/raydom.f90
    src/rayt/rayopt.f90
    users/rayt/usray1.f90

* 10/07/2009 - François Jusserand <francois.jusserand@edf.fr>
  Fix a bug when accounting for orthotropic mesh viscosity.
  modified routine:
    src/base/condli.f90

* 10/07/2009 - David Monfort <david.monfort@edf.fr>
  Remove exthis modification in usipes.
  modified routine:
    users/base/usini1.f90

* 10/07/2009 - Yvan Fournier <yvan.fournier@edf.fr>
  Fix the calculation of the face-warping quality criterium.
  modified routine:
    src/base/cs_mesh_quality.c

* 10/07/2009 - Yvan Fournier <yvan.fournier@edf.fr>
  On Linux systems, use fenv library to trap floating point exceptions.
  modified routine:
    src/apps/cs_solver.c

* 10/07/2009 - David Monfort <david.monfort@edf.fr>
  Blank removal.

* 10/07/2009 - Jérôme Bonelle <jerome.bonelle@edf.fr>
               Yvan Fournier <yvan.fournier@edf.fr>
  Add parall mesh joining feature.
  modified script:
    src/base/Makefile.am
  modified routines:
    include/base/cs_prototypes.h
    src/apps/cs_solver.c
  added routines:
    include/base/cs_join.h
    include/base/cs_join_intersect.h
    include/base/cs_join_merge.h
    include/base/cs_join_mesh.h
    include/base/cs_join_post.h
    include/base/cs_join_set.h
    include/base/cs_join_split.h
    include/base/cs_join_update.h
    include/base/cs_join_util.h
    include/base/cs_search.h
    include/base/cs_sort.h
    src/base/cs_join.c
    src/base/cs_join_f2c.f90
    src/base/cs_join_intersect.c
    src/base/cs_join_merge.c
    src/base/cs_join_mesh.c
    src/base/cs_join_post.c
    src/base/cs_join_set.c
    src/base/cs_join_split.c
    src/base/cs_join_update.c
    src/base/cs_join_util.c
    src/base/cs_search.c
    src/base/cs_sort.c
    users/base/usjoin.f90

* 10/07/2009 - David Monfort <david.monfort@edf.fr>
  Rename cs_xxxx_util.f90 in cs_xxxx_f2c.f90 to highlight Fortran API.
  added routines:
    src/base/cs_post_f2c.f90
    src/base/cs_selector_f2c.f90
    src/base/cs_syr_f2c.f90
  deleted routines:
    src/base/cs_interpr_util.f90
    src/base/cs_post_util.f90
    src/base/cs_syr_util.f90
  modified script:
    src/base/Makefile.am

* 08/07/2009 - David Monfort <david.monfort@edf.fr>
  Add missing tests on Xml file presence.
  modified routine:
    src/base/iniusi.f90

* 08/07/2009 - Alexandre Douce <alexandre.douce@edf.fr>
  Numerous modifications in the Graphical User Interface.
  - refactor of GUI reader.
  - update coal combustion management for oxycombustion modelling
  - update radiative transfer management (partly)
  - activate formula management for b.c., phys. prop., ...
  - activate atmospheric modelling
  - activate mobile mesh and fluid structure interaction management
  - several fixes
  added file:
    gui/Pages/icons/22x22/weather-few-clouds.png
  added routines:
    gui/Pages/BoundaryConditionsWallRadiativeTransferForm.ui
    gui/Pages/BoundaryConditionsWallRadiativeTransferView.py
    include/base/cs_gui_boundary_conditions.h
    include/base/cs_gui_mobil_mesh.h
    include/base/cs_gui_specific_physics.h
    include/base/cs_gui_variables.h
    src/base/cs_gui_boundary_conditions.c
    src/base/cs_gui_mobil_mesh.c
    src/base/cs_gui_specific_physics.c
  modified scripts:
    gui/Pages/Makefile.am
    src/base/Makefile.am
  modified routines:
    gui/Base/BrowserView.py
    gui/Base/MainView.py
    gui/Base/Toolbox.py
    gui/Base/XMLengine.py
    gui/Pages/AnalysisFeaturesView.py
    gui/Pages/AtmosphericFlowsForm.ui
    gui/Pages/AtmosphericFlowsModel.py
    gui/Pages/AtmosphericFlowsView.py
    gui/Pages/BatchRunningModel.py
    gui/Pages/BatchRunningView.py
    gui/Pages/BoundaryConditionsCoalInletForm.ui
    gui/Pages/BoundaryConditionsCoalInletView.py
    gui/Pages/BoundaryConditionsForm.ui
    gui/Pages/BoundaryConditionsMeteoForm.ui
    gui/Pages/BoundaryConditionsMeteoView.py
    gui/Pages/BoundaryConditionsMobileMeshView.py
    gui/Pages/BoundaryConditionsSlidingWallView.py
    gui/Pages/BoundaryConditionsTurbulenceInletView.py
    gui/Pages/BoundaryConditionsVelocityInletForm.ui
    gui/Pages/BoundaryConditionsVelocityInletView.py
    gui/Pages/BoundaryConditionsView.py
    gui/Pages/Boundary.py
    gui/Pages/CoalCombustionForm.ui
    gui/Pages/CoalCombustionModel.py
    gui/Pages/CoalCombustionView.py
    gui/Pages/CoalThermoChemistry.py
    gui/Pages/FluidCharacteristicsModel.py
    gui/Pages/FluidCharacteristicsView.py
    gui/Pages/FluidStructureInteractionView.py
    gui/Pages/LocalizationView.py
    gui/Pages/MobileMeshView.py
    gui/Pages/NumericalParamEquationModel.py
    gui/Pages/NumericalParamGlobalView.py
    gui/Pages/OutputVolumicVariablesModel.py
    gui/Pages/ProfilesModel.py
    gui/Pages/QMeiEditorView.py
    gui/Pages/resources_pages.qrc
    gui/Pages/SalomeHandler.py
    gui/Pages/SolutionDomainView.py
    gui/Pages/StartRestartForm.ui
    gui/Pages/ThermalRadiationForm.ui
    gui/Pages/ThermalRadiationView.py
    gui/Pages/TimeAveragesModel.py
    gui/Pages/TimeStepModel.py
    include/base/cs_gui.h
    include/base/cs_gui_matisse.h
    include/base/cs_gui_radiative_transfer.h
    include/base/cs_gui_util.h
    src/atmo/atini1.f90
    src/atmo/atprop.f90
    src/atmo/atvarp.f90
    src/base/cs_gui.c
    src/base/cs_gui_matisse.c
    src/base/cs_gui_radiative_transfer.c
    src/base/cs_gui_util.c
    src/base/iniusi.f90
    src/base/phyvar.f90
    src/base/strdep.f90
    src/base/tridim.f90
    src/base/varpos.f90
    src/cplv/cpprop.f90
    src/cplv/cpvarp.f90
    src/rayt/rayopt.f90
    users/base/usalcl.f90

* 08/07/2009 - Bertrand Carissimo <bertrand.carissimo@edf.fr>
               Maya Milliez <maya.milliez@edf.fr>
  Add non-neutral atmosphere modelling (both dry and humid, though
  humid atmosphere modelling is not yet fully functional).
  added routines:
    src/atmo/atmcls.f90
    src/atmo/atphyv.f90
    src/atmo/atprop.f90
    src/atmo/atprke.f90
    src/atmo/atvarp.f90
  modified routines:
    include/atmo/atincl.h
    src/atmo/atini1.f90
    src/atmo/atlecm.f90
    src/atmo/attycl.f90
    src/atmo/Makefile.am
    src/base/clptrg.f90
    src/base/turbke.f90
    src/pprt/ppcsca.f90
    src/pprt/ppphyv.f90
    src/pprt/ppprop.f90
    src/pprt/ppvarp.f90
    users/atmo/usatcl.f90
    users/atmo/usativ.f90
    users/pprt/usppmo.f90

* 08/07/2009 - David Monfort <david.monfort@edf.fr>
  Fix a check on the multigrid algorithm. Convert the abort on
  error from a test on the pressure to a test on the convection.
  modified routine:
    src/base/verini.f90

* 07/07/2009 - Yvan Fournier <yvan.fournier@edf.fr>
               David Monfort <david.monfort@edf.fr>
  Add tags in the time-monitoring files for SALOME.
  Change the files name in probes_XXXX.dat
  modified script:
    bin/runcase.in
  modified routines:
    include/base/entsor.h
    src/base/ecrhis.f90
    src/base/iniini.f90

* 07/07/2009 - Yvan Fournier <yvan.fournier@edf.fr>
  Fix a missing cs_config.h header and wrong MPI type.
  modified routine:
    src/base/cs_boundary_conditions.c

* 07/07/2009 - Yvan Fournier <yvan.fournier@edf.fr>
  Use a Fortran 95 feature - advance=no - in writing formats instead of
  the deprecating use of the dollar symbol.
  modified routine:
    src/base/csprnt.f90

* 07/07/2009 - Yvan Fournier <yvan.fournier@edf.fr>
  When detecting a divergence in the linear system solver stage, abort
  and write graphical data of the given matrix (rhs, diagonal, ...).
  modified routines:
    include/base/cs_grid.h
    include/base/cs_sles.h
    src/base/cs_grid.c
    src/base/cs_multigrid.c
    src/base/cs_sles.c

* 07/07/2009 - Yvan Fournier <yvan.fournier@edf.fr>
  Add some management functions for post-processing writer definition
  in case of one encounters an error.
  modified routines:
    include/base/cs_post.h
    src/base/cs_post.c

* 07/07/2009 - Yvan Fournier <yvan.fournier@edf.fr>
  Make easier the launch of a SYRTHES 3 / Code_Saturne coupling.
  through sockets.
  modified script:
    bin/runcase.in
  modified routines:
    include/base/cs_opts.h
    include/base/cs_syr3_comm.h
    include/base/cs_syr_coupling.h
    src/apps/cs_solver.c
    src/base/cs_opts.c
    src/base/cs_syr3_comm.c
    src/base/cs_syr_coupling.c
  
* 07/07/2009 - Yvan Fournier <yvan.fournier@edf.fr>
  OpenMP-related modifications.
  modified routines:
    include/base/cs_grid.h
    include/base/cs_prototypes.h
    include/base/parall.h
    include/base/paramx.h
    src/apps/cs_solver.c
    src/base/cs_grid.c
    src/base/cs_multigrid.c
    src/base/cs_renumber.c
    src/base/csinit.f90
    src/base/majgeo.f90

* 06/07/2009 - Yvan Fournier <yvan.fournier@edf.fr>
  Fix a wrong post-processing management for 2D SYRTHES-coupled meshes
  with SYRTHES 4.
  modified routines:
    include/base/cs_post.h
    src/base/cs_mesh_solcom.c
    src/base/cs_post.c
    src/base/cs_syr3_coupling.c
    src/base/cs_syr4_coupling.c
    src/ctwr/cs_ctwr.c

* 06/07/2009 - Yvan Fournier <yvan.fournier@edf.fr>
  Add a mesh category for an easier management of user-defined
  post-processing.
  modified routines:
    include/base/cs_post.h
    include/base/cs_prototypes.h
    src/base/cs_post.c
    src/base/dvvpst.f90

* 06/07/2009 - Yvan Fournier <yvan.fournier@edf.fr>
  Add a subroutine to control the behaviour of MPI I/O.
  modified routines:
    include/base/cs_io.h
    src/apps/cs_solver.c
    src/base/cs_io.c
    src/base/cs_preprocessor_data.c
    src/base/cs_restart.c

* 06/07/2009 - Yvan Fournier <yvan.fournier@edf.fr>
  Refactor compiler detection to alleviate some issues with IBM
  compilers (autodetection of xlc on non-BlueGene systems and
  for two different BlueGene systems on the same frontal).
  Add a MPI_TYPE autodetection for different MPI distribution.
  Code improvement/cleaning.
  modified scripts:
    bin/cs_check_consistency.py
    bin/cs_config.py.in
    bin/runcase.help
    bin/runcase.in
    config/cs_auto_flags.sh
    config/cs_mpi.m4

* 06/07/2009 - David Monfort <david.monfort@edf.fr>
  Remove call to the removed usruet subroutine.
  modified routine:
    src/base/clptrg.f90

* 06/07/2009 - Yvan Fournier <yvan.fournier@edf.fr>
  Code and comment cleaning.
  modified routines:
    include/base/cs_boundary_conditions.h
    include/base/cs_grid.h
    include/base/cs_mesh.h
    include/base/cs_mesh_quantities.h
    include/base/cs_multigrid.h
    include/base/cs_numbering.h
    include/base/cs_post.h
    include/base/cs_restart.h
    include/base/cs_sles.h
    src/base/cs_grid.c
    src/base/cs_halo.c
    src/base/cs_io.c
    src/base/cs_matrix.c
    src/base/cs_mesh.c
    src/base/cs_mesh_quality.c
    src/base/cs_mesh_quantities.c
    src/base/cs_multigrid.c
    src/base/cs_numbering.c
    src/base/cs_opts.c
    src/base/cs_post.c
    src/base/cs_sles.c
    src/base/ecrhis.f90
    src/base/ecrlis.f90
    src/base/typecl.f90
    src/base/viswal.f90
    users/base/usdpst.f90
    users/base/ussyrc.f90

* 06/07/2009 - Yvan Fournier <yvan.fournier@edf.fr>
  Fix a bug in the grid coarsening in case of parallelism.
  modified routine:
    src/base/cs_grid.c
 
* 06/07/2009 - David Monfort <david.monfort@edf.fr>
  Remove nearly never used user subroutine for u* calculation.
  removed routine:
    users/base/usruet.f90
  modified routine:
    src/base/clptur.f90
  modified documentation:
    doc/theory/clptrg.tex
    doc/theory/clptur.tex
    doc/user/saturne1.tex
  modified script:
    src/base/Makefile.am

* 03/07/2009 - Alexandre Douce <alexandre.douce@edf.fr>
               David Monfort <david.monfort@edf.fr>
  Several modifications of radiative transfer module.
  - Only one radiating phase is now possible
  - Use of propce and propfb arrays to store most of the variables
  - Use of standard routines for post-processing, leveraging the
  need of single-processor simulation for boundary variables output
  - Activation of the radiative transfer module from usray1, and no
  more from the different dp_XXX data files for specific physics
  modified thermochemistry data files:
    data/thch/dp_C3P
    data/thch/dp_C3PSJ
    data/thch/dp_C4P
    data/thch/dp_FCP
    data/thch/dp_FUE
  modified scripts:
    src/fuel/Makefile.am
    src/rayt/Makefile.am
  removed routines:
    src/rayt/raybrd.f90
    src/rayt/rayens.f90
  modified routines:
    include/base/cs_gui.h
    include/base/cs_gui_radiative_transfer.h
    include/lagr/lagran.h
    include/pprt/ppincl.h
    include/rayt/radiat.h
    src/base/caltri.f90
    src/base/clptrg.f90
    src/base/clptur.f90
    src/base/condli.f90
    src/base/covofi.f90
    src/base/cs_gui.c
    src/base/cs_gui_radiative_transfer.c
    src/base/dvvpst.f90
    src/base/impini.f90
    src/base/iniusi.f90
    src/base/memcli.f90
    src/base/tridim.f90
    src/base/varpos.f90
    src/base/verini.f90
    src/cogz/coini1.f90
    src/cogz/colecd.f90
    src/cogz/coprop.f90
    src/cogz/d3pint.f90
    src/cogz/d3pphy.f90
    src/cogz/ebuphy.f90
    src/cogz/pdflwc.f90
    src/cogz/pdfpp4.f90
    src/cplv/cpini1.f90
    src/cplv/cplecd.f90
    src/cplv/cplin1.f90
    src/cplv/cplpro.f90
    src/cplv/cpprop.f90
    src/cplv/cprays.f90
    src/elec/ellecd.f90
    src/elec/elphyv.f90
    src/elec/elveri.f90
    src/fuel/fuini1.f90
    src/fuel/fulecd.f90
    src/fuel/fuprop.f90
    src/lagr/lagcou.f90
    src/lagr/lagent.f90
    src/lagr/lagich.f90
    src/lagr/lagitp.f90
    src/lagr/laglec.f90
    src/lagr/lagopt.f90
    src/lagr/lagout.f90
    src/pprt/ppcabs.f90
    src/pprt/ppinii.f90
    src/pprt/ppray4.f90
    src/rayt/memra1.f90
    src/rayt/memra2.f90
    src/rayt/memra3.f90
    src/rayt/raycli.f90
    src/rayt/raydir.f90
    src/rayt/raydom.f90
    src/rayt/raylec.f90
    src/rayt/rayopt.f90
    src/rayt/rayout.f90
    src/rayt/raypar.f90
    src/rayt/raypun.f90
    src/rayt/raysca.f90
    src/rayt/raysol.f90
    users/cogz/usd3p1.f90
    users/cogz/usebu1.f90
    users/cogz/uslwc1.f90
    users/cplv/uscpl1.f90
    users/elec/uselph.f90
    users/lagr/uslaed.f90
    users/lagr/uslast.f90
    users/rayt/usray1.f90
    users/rayt/usray2.f90
    users/rayt/usray3.f90
    users/rayt/usray4.f90
    users/rayt/usray5.f90

* 03/07/2009 - David Monfort <david.monfort@edf.fr>
  Add a configure option to disable the graphical interface support.
  modified scripts:
    configure.ac
    Makefile.am

* 02/07/2009 - David Monfort <david.monfort@edf.fr>
  Merge syr_cs library into the kernel package for an easier
  maintenance and installation.
  Move preprocessor serach macro in configure.ac script.
  added script:
    config/cs_syrthes.m4
  removed script:
    config/cs_tools.m4
  modified scripts:
    bin/cs_compile.py
    bin/cs_config.py.in
    bin/runcase_coupling.in
    bin/runcase.in
    bin/runcase_syrthes
    configure.ac
    Makefile.am
  added routines:
    libsyrcs
    libsyrcs/Makefile.am
    libsyrcs/syr_comm.c
    libsyrcs/syr_comm.h
    libsyrcs/syr_coupling.c
    libsyrcs/syr_coupling.h
    libsyrcs/syr_cs.c
    libsyrcs/syr_defs.c
    libsyrcs/syr_defs.h

* 02/07/2009 - David Monfort <david.monfort@edf.fr>
  Pass Fortran specific libraries only to executable link stage.
  modified scripts:
    configure.ac
    bin/cs_config.py.in
    src/apps/Makefile.am

* 01/07/2009 - Richard Howard <richard.howard@edf.fr>
  Add a new turbulence model for LES: the WALE model.
  added routine:
    src/base/viswal.f90
  modified routines:
    gui/Pages/NumericalParamEquationModel.py
    gui/Pages/NumericalParamEquationView.py
    gui/Pages/TimeStepModel.py
    gui/Pages/TimeStepView.py
    gui/Pages/TurbulenceModel.py
    gui/Pages/TurbulenceView.py
    include/base/cstphy.h
    src/base/cs_gui.c
    src/base/impini.f90
    src/base/iniini.f90
    src/base/Makefile.am
    src/base/memphy.f90
    src/base/modini.f90
    src/base/phyvar.f90
    src/base/tridim.f90
    src/base/verini.f90
    users/base/usini1.f90

* 01/07/2009 - Mehdi Ouraou <mehdi.ouraou@edf.fr>
  Fix a wrong division by the density in the norm calculation for
  mass and lagrangian source terms.
  modified routine:
    src/base/resolp.f90

* 01/07/2009 - David Monfort <david.monfort@edf.fr>
  Fix a wrong test on radiative transfer modelling activated by
  specific physics.
  modified routine:
    src/rayt/rayopt.f90

* 01/07/2009 - David Monfort <david.monfort@edf.fr>
  Fix a missing "if" when testing for radiative transfer.
  modified routine:
    src/base/covofi.f90

* 01/07/2009 - David Monfort <david.monfort@edf.fr>
  Fix minor bugs introduced when committing user script modifications.
  modified scripts:
    bin/cs_check_consistency.py
    bin/runcase.in

* 26/06/2009 - David Monfort <david.monfort@edf.fr>
  Remove warning on padding.
  modified script:
    config/cs_auto_flags.sh

* 16/06/2009 - David Monfort <david.monfort@edf.fr>
  Remove executable bits for Python modules.
  modified scripts:
    bin/cs_check_consistency.py
    bin/cs_check_mesh.py
    bin/cs_compile.py
    bin/cs_config.py.in
    bin/cs_create.py
    bin/cs_info.py
    bin/cs_plot_probes.py
    gui/cs_gui.py

* 16/06/2009 - Mehdi Ouraou <mehdi.ouraou@edf.fr>
  Fix bugs in the scalar source terms for pulverized coal combustion
  with CO2 equation (wrong pointer, wrong use of unitialize arrays).
  modified routine:
    src/cplv/cptssc.f90

* 15/06/2009 - David Monfort <david.monfort@edf.fr>
  Enable the multigrid algorithm for the diffusion equation in
  the electric arcs, Lagrangian, radiative transfert (P1 model)
  and ALE modules.
  modified scripts:
    src/base/codits.f90
    src/base/varpos.f90
    src/elec/elini1.f90
    src/lagr/lageqp.f90
    src/rayt/raypun.f90

* 15/06/2009 - Jérôme Lucas <jerome.lucas@incka.fr>
  Fix a missing initialization in the halo structure.
  modified routine:
    src/base/cs_halo.c

* 15/06/2009 - Yvan Fournier <yvan.fournier@edf.fr>
  Code cleaning.
  modified routines:
    include/base/cs_boundary_conditions.h
    src/base/cs_boundary_conditions.c

* 15/06/2009 - Mehdi Ouraou <mehdi.ouraou@edf.fr>
  Fix a wrong array indirection in mass source term calculation.
  modified routines:
    src/base/mempdc.f90
    src/base/resolp.f90

* 15/06/2009 - Yvan Fournier <yvan.fournier@edf.fr>
  Fix a tricky bug in Bull optimization for matrix/vector product,
  often seen while using the multigrid algorithm (more occurences...)
  modified routine:
    src/base/cs_matrix.c

* 15/06/2009 - David Monfort <david.monfort@edf.fr>
  Fix mass flux calculation for fans modelling.
  modified routine:
    src/base/cs_ventil.c

* 15/06/2009 - François Jusserand <francois.jusserand@edf.fr>
  Fix a missing variable initialization for Code_Aster coupling.
  modified routine:
    src/base/cs_ast_coupling.c

* 15/06/2009 - Yvan Fournier <yvan.fournier@edf.fr>
  Update compiler flags for SX9 system and add -fbounds-check for gcc.
  modified script:
    config/cs_auto_flags.sh

* 15/06/2009 - Yvan Fournier <yvan.fournier@edf.fr>
  Fix to avoid error in bounds checking with gcc.
  modified routine:
    src/base/covofi.f90

* 15/06/2009 - David Monfort <david.monfort@edf.fr>
  Use the default reader for pdf.
  modified script:
    bin/cs_info.py

* 15/06/2009 - David Monfort <david.monfort@edf.fr>
               Yvan Fournier <yvan.fournier@edf.fr>
  Replace all the different user scripts by a single one.
  modified scripts:
    configure.ac
    Makefile.am
    doc/refcard/refcard.tex
    gui/Makefile.am
    gui/Base/MainView.py
  added scripts:
    bin/cs.in
    bin/cs_check_consistency.py
    bin/cs_check_mesh.py
    bin/cs_compile.py
    bin/cs_create.py
    bin/cs_info.py
    bin/cs_plot_probes.py
    gui/cs_gui.py
  removed scripts:
    bin/cs_check_consistency.in
    bin/cs_check_mesh.in
    bin/cs_compile.in
    bin/cs_config.py.in
    bin/cs_create.in
    bin/cs_info.in
    bin/cs_plot_probes.in
    bin/SaturneGUI.in
    gui/cs_gui.in

* 28/05/2009 - David Monfort <david.monfort@edf.fr>
  Add a trick to by-pass the PYTHONPATH environment variable.
  modified script:
    gui/cs_gui.in

* 28/05/2009 - David Monfort <david.monfort@edf.fr>
  Update user scripts with respect to the GUI integration,
  remove the ics_prefix references.
  modified scripts:
    bin/cs_info.in
    bin/runcase.in
    bin/runcase_coupling.in
    bin/cs_config.py.in

* 27/05/2009 - David Monfort <david.monfort@edf.fr>
  Update to new mkpyqt.py script.
  Remove two generated resources files.
  modified script:
    gui/sbin/mkpyqt.py
  removed files:
    gui/Base/resource_base_rc.py
    gui/Pages/resources_pages_rc.py

* 26/05/2009 - David Monfort <david.monfort@edf.fr>
  Merge the Graphical User Interface module within the Kernel
  module for a better consistency in development and maintenance.
  See the ICS Subversion repository for previous ChangeLog.
  added module:
    gui
  modified scripts:
    configure.ac
    config/cs_tools.m4
    bin/SaturneGUI.in
    Makefile.am

* 26/05/2009 - David Monfort <david.monfort@edf.fr>
  Tagging version 2.0 beta1

* 20/04/2009 - David Monfort <david.monfort@edf.fr>
  Mis-spelling of syr_cs_profile.
  modified script:
    bin/runcase_syrthes

* 15/04/2009 - David Monfort <david.monfort@edf.fr>
  Fix BG/L and /P ESSL BLAS detection.
  modified script:
    config/cs_auto_flags.sh
    config/cs_blas.m4

* 14/04/2009 - David Monfort <david.monfort@edf.fr>
  Change the order of header directory search when compiling.
  modified script:
    bin/cs_compile.in

* 14/04/2009 - David Monfort <david.monfort@edf.fr>
  Make all Python scripts depend on the right Python interpreter.
  Revert to 2.0.0-beta version number.
  modified scripts:
    bin/cs_check_consistency.in
    bin/cs_check_mesh.in
    bin/cs_compile.in
    bin/cs_config.py.in
    bin/cs_create.in
    bin/cs_info.in
    bin/cs_plot_probes.in
    configure.ac

* 14/04/2009 - David Monfort <david.monfort@edf.fr>
  Add a quick reference card documentation.
  Remove the reference to the VERS keyword in user subroutines.
  Change the version number to 2.0-beta1.
  modified files:
    doc/refcard/refcard.tex
    configure.ac
    Makefile.am

* 10/04/2009 - David Monfort <david.monfort@edf.fr>
  Fix the opt-libs option parsing in the compilation script.
  modified script:
    bin/cs_compile

* 08/04/2009 - David Monfort <david.monfort@edf.fr>
  Fix data/results for SYRTHES coupling.
  modified scritps:
    bin/runcase.in
    bin/runcase_syrthes

* 08/04/2009 - Yvan Fournier <yvan.fournier@edf.fr>
  Merge debug and optimized LDFLAGS.
  modified scripts:
    configure.ac
    src/*/Makefile.am

* 08/04/2009 - David Monfort <david.monfort@edf.fr>
               Yvan Fournier <yvan.fournier@edf.fr>
  Add support for a future use of MEI library for function
  interpretrer.
  Corrections in compile and autoflags scripts.
  added script:
    config/cs_mei.m4
  modified scripts:
    configure.ac
    bin/cs_config.py.in
    config/cs_auto_flags.sh
    src/apps/Makefile.am
    src/base/Makefile.am

* 08/04/2009 - Yvan Fournier <yvan.fournier@edf.fr>
  Missing common for OpenMP support and simplification
  in boundary conditions output.
  modified routines:
    include/base/parall.h
    src/base/typecl.f90

* 30/03/2009 - David Monfort <david.monfort@edf.fr>
  Update cs_auto_flags.sh (missing optimized flags)
  modified script:
    config/cs_auto_flags.sh

* 27/03/2009 - David Monfort <david.monfort@edf.fr>
  Correct way of handling a local Python installation.
  Update to the new name of the GUI script: cs_gui.
    bin/SaturneGUI.in
    configure.ac
    config/cs_tools.m4

* 27/03/2009 - David Monfort <david.monfort@edf.fr>
  Translation dictionary update.
  modified files:
    po/fr.po
    po/POTFILES.in

* 27/03/2009 - David Monfort <david.monfort@edf.fr>
  Documentation update.
  modified files:
    doc/manpages/cs_check_consistency.1
    doc/manpages/cs_create.1
    doc/manpages/cs_info.1
    doc/user/saturne1.tex
    doc/user/saturne2.tex

* 27/03/2009 - David Monfort <david.monfort@edf.fr>
  Move from getopt to optparse module in Python scripts to handle
[...]
    cs_post.h
    cs_renumber.c
    cs_renumber.h
    cs_sles.c
    cs_suite.c
    cs_syr_coupling.c
    cs_ventil.F
    cs_ventil.h
    grdcel.F
    impini.F
    iniini.F
    initi1.F
    lagcel.F
    lagnwc.F
  modified and renamed routines:
    cs_maillage.c  cs_mesh.c
    cs_maillage.h  cs_mesh.h
    cs_maillage_connect.c  cs_mesh_connect.c
    cs_maillage_connect.h  cs_mesh_connect.h
    cs_maillage_grd.c  cs_mesh_quantities.c
    cs_maillage_grd.h  cs_mesh_quantities.h
    cs_maillage_select.c  cs_mesh_select.c
    cs_maillage_select.h  cs_mesh_select.h
    cs_maillage_solcom.c  cs_mesh_solcom.c
    cs_maillage_solcom.h  cs_mesh_solcom.h
    cs_messages_ecs.c   cs_ecs_messages.c
    cs_messages_ecs.h  cs_ecs_messages.h
    cs_parallel.c  cs_parall.c
    cs_parallel.h  cs_parall.h
    cs_voiset.c  cs_ext_neighborhood.c
    cs_voiset.h  cs_ext_neighborhood.h
  removed routines:
    cs_msg.c
    cs_msg.h
    filtre.F
    limgrd.F

===========================================================================

* 06/07/2007 - Marc Sakiz <marc.sakiz@edf.fr>
  Tagging of version 1.3.k


* 04/07/2007 - Bertrand Carissimo <bertrand.carissimo@edf.fr>
  Implementation of rough wall boundary conditions
  added routines:
    clptrg.F
  modified routine:
    cfxtcl.F
    clptur.F
    clsyvt.F
    condli.F
    cou1di.F
    coupbi.F
    cpltcl.F
    cpptcl.F
    d3ptcl.F
    distpr.F
    distyp.F
    ebutcl.F
    fuptcl.F
    lageqp.F
    lwctcl.F
    paramx.h
    ppclim.F
    ppprcl.F
    ppray4.F
    pptycl.F
    precli.F
    raycli.F
    raypun.F
    rijech.F
    tridim.F
    typecl.F
    usalcl.F
    usclim.F
    uscpcl.F
    uscplc.F
    usd3pc.F
    usebuc.F
    uselcl.F
    usetcl.F
    usfucl.F
    uslwcc.F
    usray2.F
    usray4.F
    usray5.F
    usruet.F
    vericl.F
    vor2cl.F

===========================================================================

* 03/07/2007 - Marc Sakiz <marc.sakiz@edf.fr>
  Tagging of version 1.3.j

* 02/07/2007 - Mehdi Ouraou <mehdi.ouraou@edf.fr>
  Implementation of fuel combustion, coal humidity and
  reorganisation of pulverised coal combustion.
  added data files:
    dp_FUE
  added routines:
    cpcym2.F
    fucym1.F
    fuflux.F
    fuincl.h
    fuini1.F
    fuiniv.F
    fulecd.F
    fupdfr.F
    fuphy1.F
    fuphy2.F
    fuphyv.F
    fuprop.F
    fuptcl.F
    futeh1.F
    futeh2.F
    futhp1.F
    futhp2.F
    futssc.F
    futsvc.F
    futsvi.F
    fuvarp.F
    fuveri.F
    memfu1.F
    usfucl.F
    usfui1.F
    usfuiv.F
  modified data files:
    dp_FCP
    JAnAF
  modified routines:
    copdfr.F -> renamed pppdfr.F
    covofi.F
    cpflux.F
    cpincl.h
    cpini1.F
    cpiniv.F
    cplecd.F
    cpphy1.F
    cpphy2.F
    cpphyv.F
    cpprop.F
    cpptcl.F
    cprays.F
    cpteh2.F
    cpthp2.F
    cptssc.F
    cpvarp.F
    cpveri.F
    cs_gui.c
    cs_gui.h
    d3phst.F
    d3pint.F
    d3pphy.F
    d3pver.F
    ebuver.F
    ecrava.F
    impini.F
    iniusi.F
    lagcar.F
    lagent.F
    lages1.F
    lages2.F
    laggra.F
    lagich.F
    lagitf.F
    laglec.F
    lagopt.F
    lagout.F
    lecamx.F
    lwcver.F
    ppcabs.F
    ppclim.F
    ppcsca.F
    ppincl.h
    ppinii.F
    ppiniv.F
    pplecd.F
    ppphyv.F
    ppprcl.F
    ppprop.F
    ppray4.F
    ppthch.h
    pptssc.F
    pptycl.F
    ppvarp.F
    raydom.F
    rayopt.F
    scalai.F
    uscpi1.F
    uscpiv.F
    usppmo.F
  modified scripts:
    lance
    lance_install
    Makefile



* 02/07/2007 - Marc Sakiz <marc.sakiz@edf.fr>
  Suppression of useless vide.h files

* 02/07/2007 - Yvan Fournier <yvan.fournier@edf.fr>
  Update of macros_*.mk for Linux, Linux_IA64 and Linux_CCRT, definition of
  C-Blas as default, suppression of some unused arguments in gradient
  calculation to allow earlier call.
  modified scripts:
    macros_Linux.mk
    macros_Linux_CCRT.mk
    macros_Linux_IA64.mk
  modified routines:
    cs_blas.c
    cs_blas.h
    cs_voiset.c
    cs_voiset.h
    gradmc.F
    gradrc.F
    grdcel.F
    tremai.c

===========================================================================

* 02/07/2007 - Marc Sakiz <marc.sakiz@edf.fr>
  Tagging of version 1.3.i

* 29/06/2007 - Carole Vit <carole.vit@edf.fr>
               Sofiane Benhamadouche <sofiane.benhaamdouche@edf.fr>
               Marc Sakiz <marc.sakiz@edf.fr>
  Implementation of steady-state algorithm
  modified routines:
    alelap.F
    bilsc2.F
    codits.F
    covofi.F
    cs_opts.c
    distpr.F
    distyp.F
    dttvar.F
    impini.F
    iniini.F
    iniusi.F
    matrdt.F
    modini.F
    navsto.F
    optcal.h
    preduv.F
    reseps.F
    resolp.F
    resrij.F
    resssg.F
    resv2f.F
    tridim.F
    turbke.F
    turbkw.F
    verini.F
    cfmsvl.F
    lageqp.F
    raypun.F
    raysol.F


===========================================================================

* 25/06/2007 - Marc Sakiz <marc.sakiz@edf.fr>
  Tagging of version 1.3.h

* 25/06/2007 - Marc Sakiz <marc.sakiz@edf.fr>
  Correction of erroneous verification test on
  time averages in varpos.F

* 22/06/2007 - Marc Sakiz <marc.sakiz@edf.fr>
  Compatibility of ALE method with 2nd order time
  scheme and velocity/pressure sub-iterations (but
  it does not imply that the mesh movement and
  inner structure coupling is 2nd order ...)
  + full explicit treatment of the mass flux if
  ISTMPF.EQ.0 in case of velocity/pressure sub-iterations
  modified routines:
    schtmp.F
    strdep.F
    strpre.F
    tridim.F
    verini.F

* 11/06/2007 - Yvan Fournier <yvan.fournier@edf.fr>
  Update of macros*.mk, minor modifications to benchmarking
  mode and BLAS porting, extension solver reorganisation
  modified scripts:
    macros_*.mk
  modified routines:
    cs_benchmark.c
    cs_matrix.c
    cs_sles.c
    invers.F

* 11/06/2007 - Yvan Fournier <yvan.fournier@edf.fr>
  Merge of base_1 and base_2 directories as base in src
  and corresponding modification of Makefile

* 06/06/2007 - David Monfort <david.monfort@edf.fr>
  Correction of Makefile to avoid problems with *.F* files
  that are not *.F nor *.F95

* 27/04/2007 - Marc Sakiz <marc.sakiz@edf.fr>
  Correction of missing ITUSER/RTUSER/IDEVEL/RDEVEL arguments
  in certain routines
  modified routines:
    caltri.F
    cregeo.F
    lagcar.F
    lageli.F
    lagent.F
    lages1.F
    lages2.F
    lagesp.F
    lagfch.F
    lagipn.F
    lagnew.F
    lagnpr.F
    lagnwc.F
    lagrus.F
    lagsta.F
    lagune.F
    usdpst.F
    usladp.F
    uslafe.F
    uslain.F
    uslatc.F
    uslatp.F

* 25/04/2007 - David Monfort <david.monfort@edf.fr>
  Suppression of useless test on IISUIT before the second
  call to ECRAVA in caltri.F

* 25/04/2007 - Yvan Fournier <yvan.fournier@edf.fr>
  Correction of specific cases where "inline" commands
  are banned
  modified routines:
  cs_base.h
  cs_lagrang.c
  cs_matrix.c
  cs_sles.c

===========================================================================

* 18/04/2007 - Marc Sakiz <marc.sakiz@edf.fr>
  Tagging of version 1.3.g


* 18/04/2007 - Jérôme Bonelle <jerome.bonelle@edf.fr>
  Porting on Linux_Argent architecture (CCRT Bull Novascale
  Itanium cluster), including BLAS compatibility
  added script:
    marcos_Linux_Argent.mk
  modified scripts:
    cs_profile
    lance
    rang_mpi.sh
  modified routines:
    cs_blas.c
    cs_blas.h

	
* 10/04/2007 - Yvan Fournier <yvan.fournier@edf.fr>
  Reorganisation of the linear solvers, "matrix" structure,
  adaptation to BLAS libraires, management of memory alignment
  for BlueGene optimisation, benchmark mode for testing linear
  solvers, change in the position of the renumbering of cells
  for vector machines optimisation, adaptation to fvm-0.7.0, 
  optimisation of parallel/periodic synchronisations to avoid
  redudancies, automatic supression of X or 1 in the post-processing
  name of a vector variable with components labelled (...X,...Y,...Z)
  or (...1, ...2, ...3) 
  modified scripts:
    cs_profile
    lance_install
    macros_Blue_Gene_L.mk
    macros_HP-UX.mk
    macros_IRIX64.mk
    macros_Linux.mk
    macros_Linux_CCRT.mk
    macros_Linux_Ch.mk
    macros_OSF1.mk
    macros_SunOS.mk
    Makefile
    rang_mpi.sh
  added routines:
    cs_benchmark.c
    cs_benchmark.h
    cs_blas.c
    cs_blas.h
    cs_matrix.c
    cs_matrix.h
    cs_prototypes.h
    cs_renumber.c
    cs_renumber.h
    cs_sles.c
    cs_sles.h
  deleted routines:
    memnvc.F
  modified routines:
    cfcdts.F
    cgstab.F
    codits.F
    cregeo.F
    cycmgr.F
    cs_base.h
    cs_couplage.c
    cs_maillage_connect.c
    cs_maillage_solcom.c
    cs_main.c
    cs_opts.c
    cs_opts.h
    cs_parallel.c
    cs_perio.c
    cs_perio.h
    cs_post_util.F
    dvvpst.F
    gradco.F
    iniini.F
    invers.F
    jacobi.F
    numvec.F
    prcpol.F
    promav.F
    proxav.F

* 05/04/2007 - Fabien Huvelin <fabien.huvelin@edf.fr>
  Chronological records of structure displacement, velocity
  acceleration and forces + improved force and displacement
  prediction for explicit internal structure coupling
  modified routines:
    albase.h
    alstru.h
    caltri.F
    entsor.h
    iniini.F
    modini.F
    paramx.h
    strdep.F
    strini.F
    strpre.F
    tridim.F
    usalin.F
    usstru.F
    verini.F
  added routine:
    strhis.F

* 26/03/2007 - Fabien Huvelin <fabien.huvelin@edf.fr>
  Displacement based Newmark scheme for internal
  structure coupling instead of acceleration based scheme
  modified routines:
    alstru.h
    iniini.F
    modini.F
    newmrk.F
    strdep.F
    strini.F
    verini.F

* 26/03/2007 - Marc Sakiz <marc.sakiz@edf.fr>
  Implementation of an orthotropic mesh viscosity
  for the ALE method
  modified routines:
    albase.h
    alelap.F
    condli.F
    ecrava.F
    iniini.F
    iniva0.F
    lecamx.F
    modini.F
    numvar.h
    phyvar.F
    usalin.F
    usvima.F
    varpos.F


* 01/03/2007 - Marc Sakiz <marc.sakiz@edf.fr>
  Change in comments, initialisation and tests
  on ITRSVR
  modified routines:
    entsor.h
    iniini.F
    modini.F
    verini.F

===========================================================================

* 01/03/2007 - Marc Sakiz <marc.sakiz@edf.fr>
  Tagging of version 1.3.f

* 01/03/2007 - Marc Sakiz <marc.sakiz@edf.fr>
  Bug correction in initialisation of IPRTOT pointer
  in varpos.F
  modified routines:
    iniini.F
    varpos.F

* 14/02/2007 - Marc Sakiz <marc.sakiz@edf.fr>
  Modification of lance to limit its size (problem
  with LSF with too large scripts)
  added script:
    lance.help
  modified script:
    cree_sat
    lance

* 13/02/2007 - Yvan Fournier - <yvan.fournier@edf.fr>
  Modification of Makefile for BLAS on Blue Gene architecture

* 13/02/2007 - Jerome Bonelle <jerome.bonelle@edf.fr>
  Correction for Syrthes coupling with 2D solid meshes
  modified routines:
    cs_mesh_quality.c
    cs_post.c
    cs_syr_coupling.c

* 10/02/2007 - Marc Sakiz <marc.sakiz@edf.fr>
  Change in the architecture of the libraries
  (creation of the "arch" directory)
  modified scripts:
  lance_install
  Makefile

* 10/02/2007 - Marc Sakiz <marc.sakiz@edf.fr>
  Change of an ambiguous notation in the routines
  for the specific physics source terms.
  modified routines:
    cpltss.F
    cpltsv.F
    cptssc.F
    cptsvc.F
    cptsvi.F
    ebutss.F
    eltssc.F
    lwctss.F
    pptssc.F
	
* 09/02/2007 - Mehdi Ouraou <mehdi.ouraou@edf.fr>
             - Alexandre Douce <alexandre.douce@edf.fr>
  Modifications in the Lagrangian module: chemical forces
  (van der Waals et al.), particule slugging and advanced
  particle/wall interaction, compliance with periodic
  boundaries, advanced statistics control (averages and
  root mean squares) and post-processing.
  added routines:
    cs_lagr_perio.c
    cs_lagr_perio.h
    lagaff.F
    lagfch.F
    laghis.F
    lagnpr.F
    usladp.F
    uslafe.F
    uslapr.F
  deleted routine:
    lagraf.F
  modified routines:
    caltri.F
    cs_post.c
    cs_post.h
    dvvpst.F
    enslag.F
    entsor.h
    impini.F
    iniini.F
    lagcar.F
    lagcel.F
    lagdeb.F
    lageli.F
    lagent.F
    lages1.F
    lages2.F
    lagesp.F
    lagini.F
    laglec.F
    laglis.F
    lagnwc.F
    lagopt.F
    lagout.F
    lagpar.h
    lagran.h
    lagrus.F
    lagsta.F
    lagune.F
    memla1.F
    memla2.F
    memtri.F
    ouestu.F
    uslabo.F
    uslaen.F
    uslag1.F
    uslag2.F
    uslaru.F
    uslast.F
    verini.F

* 08/02/2007 - Mehdi Ouraou <mehdi.ouraou@edf.fr>
  Changes in boundary conditions for compressible module
  (Code_Saturne bug tracker ticket #57)
  modified routines:
    cfxtcl.F
    uscfth.F

* 31/01/2007 - Marc Sakiz <marc.sakiz@edf.fr>
  Deletion of the STUB ifdef and associated compilation
  options
  modified routines:
    cfdttv.F
    cfener.F
    cfini1.F
    cfiniv.F
    cfmsvl.F
    cfphyv.F
    cfprop.F
    cfqdmv.F
    cfvarp.F
    cfxtcl.F
    coini1.F
    colecd.F
    coprop.F
    cothht.F
    covarp.F
    cpflux.F
    cpini1.F
    cpiniv.F
    cplecd.F
    cplin1.F
    cplini.F
    cplphy.F
    cplpro.F
    cpltcl.F
    cpltss.F
    cplvar.F
    cpphyv.F
    cpprop.F
    cpptcl.F
    cprays.F
    cpthp1.F
    cpthp2.F
    cptssc.F
    cpvarp.F
    d3pini.F
    d3pphy.F
    d3ptcl.F
    ebuini.F
    ebuphy.F
    ebutcl.F
    ebutss.F
    elflux.F
    elini1.F
    eliniv.F
    ellecd.F
    elphyv.F
    elprop.F
    eltssc.F
    elvarp.F
    lagini.F
    laglec.F
    laglis.F
    lagopt.F
    lagout.F
    lagune.F
    lwcini.F
    lwcphy.F
    lwctcl.F
    lwctss.F
    memcfm.F
    memla1.F
    memla2.F
    memmat.F
    memra1.F
    memra2.F
    memra3.F
    mtimpi.F
    mtini1.F
    mtkpdc.F
    mtphyv.F
    mtproj.F
    mttsns.F
    mttssc.F
    mttycl.F
    raycli.F
    raydak.F
    raydom.F
    rayens.F
    raylec.F
    rayopt.F
    rayout.F
    raysca.F
    uscfcl.F
    uscfth.F
    uscpcl.F
    uscplc.F
    usd3pc.F
    usebuc.F
    uselcl.F
    uselen.F
    uselrc.F
    usetcl.F
    uslaen.F
    uslwcc.F
  modified scripts:
    lance
    lance_install
    macros_*.mk
    Makefile

* 29/01/2007 - Carole Vit <carole.vit@edf.fr>
  Post-processing of the Courant and Fourier numbers
  (listing, chronological records, 3D post-processing)

* 09/01/2007 - Marc Sakiz <marc.sakiz@edf.fr>
  Correction of bug in argument passing of codits in raysol.F and raypun.F
  (bug introduced in version 1.3.c with the change from IDIRCL to NDIRCL).
  
* 08/01/2007 - Marc Sakiz <marc.sakiz@edf.fr>
  Writing of Cmu constant in listing with k-omega SST model (used
  for epsilon/omega conversions)

* 08/01/2007 - Marc Sakiz <marc.sakiz@edf.fr>
  Minor changes in comments of many files

* 04/01/2007 - Marc Sakiz <marc.sakiz@edf.fr>
  Modification of the test on ICDPAR and parallelism/periodicity
  in verini.F

* 03/01/2007 - Marc Sakiz <marc.sakiz@edf.fr>
  Suppression of useless ISTAT and NDIRCP in matrdt
  modified routines:
    distyp.F
    dttvar.F
    matrdt.F

* 21/12/2006 - Yvan Fournier <yvan.fournier@edf.fr>
  Link to BFT 1.0.3
  modified scripts:
    macros_*.mk

* 21/12/2006 - Alexandre Douce <alexandre.douce@edf.fr>
  Modifications for pulverised coal and radiative transfer
  in GUI
  added routine:
    usray5.F
  modified routines:
    cpini1.F
    cpveri.F
    cs_gui.c
    cs_gui.h
    cs_gui_radiative_transfer.c
    cs_gui_radiative_transfer.h
    cs_gui_util.c
    cs_gui_util.h
    inivar.F
    ppcabs.F
    ppclim.F
    raycli.F
    raydom.F
    rayopt.F
    tridim.F
    uscpi1.F
    usray2.F
    usray3.F

* 21/12/2006 - Flavien Billard <flavien.billard@gmail.com>
  Modification in source term for the fb equation
  in resv2f.F

* 21/12/2006 - Marc Sakiz <marc.sakiz@edf.fr>
  Correction of memory management in strini.F

* 21/12/2006 - Marc Sakiz <marc.sakiz@edf.fr>
  Deletion of file v2nutp.F (unused routine, remnance
  of tests on v2f model with IKEKOU=1)

===========================================================================

* 18/12/2006 - Marc Sakiz <marc.sakiz@edf.fr>
  Tagging of version 1.3.e

* 18/12/2006 - Marc Sakiz <marc.sakiz@edf.fr>
  Adding of GPL licence tag on all files.

* 15/12/2006 - Yvan Fournier <yvan.fournier@edf.fr>
  Minor modification in user manual

* 15/12/2006 - Yvan Fournier <yvan.fournier@edf.fr>
  Finer CPU time analysis for post-processing in
  cs_post.c

* 15/12/2006 - Yvan Fournier <yvan.fournier@edf.fr>
  Suppression of unused arguments in limgrd.F
  modified routines:
    cs_voiset.c
    cs_voiset.h
    grdcel.F
    limgrd.F
	
* 15/12/2006 - Yvan Fournier <yvan.fournier@edf.fr>
  Corrected "assert" instructions + correction of
  cs_syr_coupling.c (adaptation to fvm-0.6.2)
  modified routines:
    cs_maillage_connect.c
    cs_mesh_quality.c
    cs_syr_coupling.c
	
	
* 15/12/2006 - Yvan Fournier <yvan.fournier@edf.fr>
  Preparation for BLAS libraries and other optimisations
  for Blue Gene
  modified routines:
    cs_base.c
    cs_parallel.c
    gradco.F
    prodsc.F
    promav.F
    tremai.c
  modified script:
    Makefile
	
* 07/12/2006 - Carole Vit <carole.vit@edf.fr>
  Correction of debugging message format in iniusi.F

* 07/12/2006 - Marc Sakiz <marc.sakiz@edf.fr>
  Deletion of unnecessary calls to include memoir.h
  modified routines:
    iniini.F
    iniusi.F
    modini.F
    usini1.F
    verini.F

* 06/12/2006 - Marc Sakiz <marc.sakiz@edf.fr>
  Bug correction in dttvar.F (at the first time step, NDIRCL is initialised
  to 0 which results in a slight shift of the diagonal of the matrix
  used to calculate the time step when IDTVAR>0)

* 01/12/2006 - Marc Sakiz <marc.sakiz@edf.fr>
  Bug correction in the ALE method (calculation of the flux with
  imposed displacement of inner vertices + boundary conditions of
  moving symmetry faces
  modified routines:
    navsto.F
    tridim.F
    typecl.F

* 30/11/2006 - David Monfort <david.monfort@edf.fr>
  Bug correction in the arguments of codits in distyp.F

* 30/11/2006 - David Monfort <david.monfort@edf.fr>
  Minor corrections of the examples in usvpst.F and comments
  in usstru.F

* 29/11/2006 - Frederic Archambeau <frederic.archambeau@edf.fr>
  Correction of missing definition of IPCROM and IPBROM
  in the last IPHAS loop of navsto.F
  (Code_Saturne bug tracker ticket #59)

	
* ../11/2006 - David Monfort <david.monfort@edf.fr>
  Correction of verifmail due to new Envelope options
  (Code_Saturne bug tracker ticket #53)

* ../11/2006 - Marc Sakiz <marc.sakiz@edf.fr>
  Change of NSPHMX to 1 in paramx.h (since IPHAS is forced to 1)

* ../11/2006 - Marc Sakiz <marc.sakiz@edf.fr>
  Correction of the display and the test on IPSTFO
  modified routines:
    impini.F
    verini.F
	
* ../11/2006 - Marc Sakiz <marc.sakiz@edf.fr>
  Correction in modini.F to have default post-processing of the mesh
  viscosity with ALE

* ../11/2006 - Jerome Bonelle <jerome.bonelle@edf.fr>
  Correction of a bug in cs_base.c (dimension of cs_glob_base_chaine)

* ../11/2006 - Marc Sakiz <marc.sakiz@edf.fr>
  Correction of a bug in dttvar.F in case IPTLRO=1 (introduced un 1.3.d)
  modified routines:
    dttvar.F
    memdtv.F
    tridim.F
	
* ../11/2006 - Yvan Fournier <yvan.fournier@edf.fr>
  Correction of a bug in cs_suite.c (introduced in version 1.3.d)
	
* ../11/2006 - David Monfort <david.monfort@edf.fr>
  Correction of a "real.EQ.0.D0" test in visdyn.F and in ussmag.F
  (Code_Saturne bug tracker ticket #56)
	
* ../11/2006 - David Monfort <david.monfort@edf.fr>
  Modification of gracehst to write the temporary file in /tmp
  (Code_Saturne bug tracker ticket #55)

* ../11/2006 - Marc Sakiz <marc.sakiz@edf.fr
  Correction in navsto.F (RETURN added for IPRCO=0)
	
* ../11/2006 - Emmanuel Lemoine <emmanuel.lemoine@incka.fr>
  Corrections in strdep.F (PARSOM forgotten in the evaluation of FORSTR)
  + no need to multiply by SURFBN in FORSTR

* 21/11/2006 - Marc Sakiz < marc.sakiz@edf.fr>
  Import of version ncs-1.3.d
  For the history of earlier modifications, refer to the Synchronisation
  file of version 1.3.d.

===========================================================================
===========================================================================
