* 23/03/2009 - David Monfort <david.monfort@edf.fr>
  Reorganize the test cases database in a simpler way.
  Remove obsolete tex files.
  removed files:
    doc/theory/introd_fonc.save
    doc/theory/introd_fonc.tex.last

* 23/03/2009 - David Monfort <david.monfort@edf.fr>
  Lot of Makefile changes related to package distribution.
  Add a refcard documentation and some missing manpages.
  Add a csmacro and a csvers file containing all the macros
  and version for Code_Saturne documentation.
  Install cs_config.py in a Python site-package.
  Rename TEST_CASES in test_cases.
  modified files:
    configure.ac
    doc/howto/graphics/Makefile.am
    doc/howto/howto.tex
    doc/howto/Makefile.am
    doc/Makefile.am
    doc/manpages/cs_compile.1
    doc/manpages/cs_config.1
    doc/manpages/cs_create.1
    doc/manpages/cs_info.1
    doc/manpages/cs_plot_probes.1
    doc/manpages/cs_solver.1
    doc/refcard
    doc/refcard/graphics
    doc/refcard/graphics/Makefile.am
    doc/refcard/Makefile.am
    doc/refcard/refcard.tex
    doc/style/csdoc.sty
    doc/style/csindex.sty
    doc/style/csmacros.sty
    doc/style/csvers.tex.in
    doc/theory/graphics/Makefile.am
    doc/theory/Makefile.am
    doc/theory/theory.tex
    doc/tutorial/graphics/Makefile.am
    doc/tutorial/Makefile.am
    doc/tutorial/test_cases
    doc/tutorial/tutorial.tex
    doc/user/graphics/Makefile.am
    doc/user/Makefile.am
    doc/user/saturne1.tex
    doc/user/saturne2.tex
    doc/user/user.tex
    Makefile.am

* 23/03/2009 - David Monfort <david.monfort@edf.fr>
  Bug correction in SYRTHES coupling script.
  modified script:
    bin/runcase_syrthes

* 23/03/2009 - David Monfort <david.monfort@edf.fr>
  Remove the test on iasize in memory management routines where
  one does not need anymore new integer arrays. Fix a potential
  bug (introduced with the new multigrid algorithm) when
  checking a non-initialized variable.
  modified routines:
    src/base/memale.f90
    src/base/memdis.f90
    src/base/memdyp.f90
    src/base/memkep.f90
    src/base/memkom.f90
    src/base/memnav.f90
    src/base/memrij.f90
    src/base/memsca.f90
    src/base/memv2f.f90
    src/cfbl/memcfm.f90
    src/rayt/memra2.f90

* 20/03/2009 - David Monfort <david.monfort@edf.fr>
  Minor corrections and improvements based on feedback from
  Debian packager S. Ledru.
  added scripts:
    bin/runcase_mpi_env
    bin/runcase_mpi_rank
    bin/runcase_syrthes
  deleted scripts:
    bin/cs_runcase_mpi_env
    bin/cs_runcase_mpi_rank
    bin/cs_runcase_syrthes.in
    sbin/compil
    sbin/gettextize
    sbin/install
  modified scripts:
    bin/cs_config.py.in
    bin/runcase.in
    config/cs_auto_flags.sh
    configure.ac
    Makefile.am
    src/atmo/Makefile.am
    src/base/Makefile.am
    src/cfbl/Makefile.am
    src/cogz/Makefile.am
    src/cplv/Makefile.am
    src/ctwr/Makefile.am
    src/elec/Makefile.am
    src/fuel/Makefile.am
    src/lagr/Makefile.am
    src/pprt/Makefile.am
    src/rayt/Makefile.am

* 20/03/2009 - Yvan Fournier <yvan.fournier@edf.fr>
  Port autotools build system to BlueGene and Itanium systems.
  Add full BLAS and OpenMP support.
  modified scripts:
    config/cs_auto_flags.sh
    config/cs_blas.m4
    config/cs_fvm.m4
    config/cs_libxml2.m4
    config/cs_mpi.m4
    config/cs_tools.m4
    configure.ac

* 20/03/2009 - Yvan Fournier <yvan.fournier@edf.fr>
  Upgrade to BFT 1.1.
  Corrections and modifications for OpenMP support.
  Other small fixes regarding autotools support.
  modified script:
    src/base/Makefile.am
  modified routines:
    include/base/cs_base.h
    include/base/cs_blas.h
    include/base/cs_opts.h
    include/base/parall.h
    src/base/cs_ast_coupling.c
    src/base/cs_base.c
    src/base/cs_blas.c
    src/base/cs_main.c
    src/base/cs_matrix.c
    src/base/cs_opts.c
    src/base/cs_syr3_coupling.c
    src/base/majgeo.f90
    src/ctwr/cs_ctwr.c
    users/base/usdpst.f90

* 17/03/2009 - David Monfort <david.monfort@edf.fr>
  Add man pages for the main scripts to the documentation.
  added files:
    doc/manpages
    doc/manpages/cs_info.1
    doc/manpages/cs_check_consistency.1
    doc/manpages/cs_create.1
    doc/manpages/cs_config.1
    doc/manpages/cs_plot_probes.1
    doc/manpages/cs_check_mesh.1
  modified script:
    Makefile.am

* 17/03/2009 - David Monfort <david.monfort@edf.fr>
  Take into account the correct installation path for pdf documentation.
  modified scripts:
    bin/cs_create.in
    bin/cs_info.in

* 17/03/2009 - David Monfort <david.monfort@edf.fr>
  Bug correction in the copy of SYRTHES results.
  modified script:
    bin/cs_runcase_syrthes.in

* 17/03/2009 - David Monfort <david.monfort@edf.fr>
  Rename all scripts to remain coherent throughout Code_Saturne
  distribution.
  modified scripts:
    configure.ac
    Makefile.am

* 16/03/2009 - David Monfort <david.monfort@edf.fr>
  Major overhauling of the documentation building to keep
  automake rules.

* 16/03/2009 - David Monfort <david.monfort@edf.fr>
  Make lowercase documentation directories.

* 11/03/2009 - David Monfort <david.monfort@edf.fr>
  Remove (at last!) the cs_profile, Makefile and macros files.
  removed scripts:
    bin/cs_profile
    bin/macros_Blue_Gene_L.mk
    bin/macros_Blue_Gene_P.mk
    bin/macros_Darwin.mk
    bin/macros_Linux.mk
    bin/macros_Linux_IA64.mk
    bin/macros_Linux_x86_64.mk
    bin/macros_SX9.mk
    bin/Makefile
    extras/macros_old/macros_IRIX64.mk
    extras/macros_old/macros_SunOS.mk
    extras/macros_old/macros_OSF1.mk
    extras/macros_old/macros_Linux_CCRT.mk
    extras/macros_old/macros_HP-UX.mk
    extras/macros_old/README
    extras/macros_old

* 11/03/2009 - David Monfort <david.monfort@edf.fr>
  Add a --with-python option so that the Python executable used
  by the SaturneGUI script can be set up at installation stage.
  Minor modifications in the runcase script.
  modified scripts:
    bin/runcase.in
    bin/SaturneGUI.in
    config/cs_tools.m4
    configure.ac

* 11/03/2009 - David Monfort <david.monfort@edf.fr>
               Yvan Fournier <yvan.fournier@edf.fr>
  Add a cs_compile Python script to enable user compilation,
  based on information provided by cs_config.py, and add rpath
  handling in this latter script to be able to link even if the
  library path is not standard.
  Add a call to the new syr_cs_profile in SYRTHES coupling
  handling.
  Modify the behaviour of cs_create so that the comment removal
  and version tag is done at the installation stage, and no more
  at the study structure creation.
  Minor correction and modification in the runcase script.
  added scripts:
    bin/cs_compile
    bin/runcase_syrthes.in
  removed scripts:
    bin/runcase_syrthes
  modified scripts:
    bin/cs_config.py.in
    bin/cs_create.in
    bin/runcase.in
    config/cs_auto_flags.sh
    config/cs_tools.m4
    configure.ac
    Makefile.am

* 10/03/2009 - Yvan Fournier <yvan.fournier@edf.fr>
  Add a Python config files to enable the user scripts to
  be aware of the build and install options.
  added scripts:
    bin/cs_config.py.in
    configure.ac
  modified scripts:
    config/cs_auto_flags.sh
    config/cs_config_info.m4

* 09/03/2009 - David Monfort <david.monfort@edf.fr>
  Do not compile the code if there is no user file.
  modified script:
    bin/runcase.in

* 09/03/2009 - Yvan Fournier <yvan.fournier@edf.fr>
  Refactoring of the mesh renumbering feature in order
  to account for OpenMP support. Still missing is the
  correct numbering of interior and boundary faces.
  Based on initial work of Pascal Vezolles from IBM.
  added routines:
    include/base/cs_numbering.h
    src/base/cs_numbering.c
  modified routines:
    include/base/cs_base.h
    include/base/cs_matrix.h
    include/base/cs_mesh.h
    include/base/cs_prototypes.h
    include/base/cs_renumber.h
    include/base/parall.h
    include/base/paramx.h
    include/base/vector.h
    src/base/cs_base.c
    src/base/cs_benchmark.c
    src/base/cs_grid.c
    src/base/csinit.f90
    src/base/cs_main.c
    src/base/cs_matrix.c
    src/base/cs_mesh.c
    src/base/cs_renumber.c
    src/base/cs_sles.c
    src/base/gradmc.f90
    src/base/iniini.f90
    src/base/majgeo.f90
    src/base/numvec.f90
    src/base/prods2.f90
    src/base/prods3.f90
    src/base/prodsc.f90
  modified scripts:
    po/POTFILES.in
    src/base/Makefile.am

* 09/03/2009 - Yvan Fournier <yvan.fournier@edf.fr>
  Create a graphical post-processing view of the boundary
  conditions definition in case of error.
  added routines:
    include/base/cs_boundary_conditions.h
    src/base/cs_boundary_conditions.c
  modified scripts:
    po/POTFILES.in
    src/base/Makefile.am
  modified routines:
    include/base/cs_post.h
    src/base/cs_post.c
    src/base/typecl.f90

* 09/03/2009 - David Monfort <david.monfort@edf.fr>
  Replace CS_HOME fixed behaviour with autoconf handling
  in check_mesh, cs_create, cs_info, runcase and SaturneGUI.
  Remove unused scripts.
  modified scripts:
    bin/check_mesh
    bin/cs_create
    bin/cs_info
    bin/mpi_rank.sh
    bin/runcase
    bin/runcase.help
    bin/SaturneGUI
    configure.ac
  removed scripts:
    bin/compiler_version
    bin/cs.exe
    bin/ecs

* 09/03/2009 - David Monfort <david.monfort@edf.fr>
               Yvan Fournier <yvan.fournier@edf.fr>
  Change BFT and FVM behaviour wrt the _FLAGS handling.
  modified scripts:
    config/cs_bft.m4
    config/cs_fvm.m4
    configure.ac
    src/base/Makefile.am
    src/ctwr/Makefile.am
    src/lagr/Makefile.am

* 09/03/2009 - David Monfort <david.monfort@edf.fr>
               Yvan Fournier <yvan.fournier@edf.fr>
  Automatic detection of fvm_coupl library, along with
  sockets and dlopen support, and some system calls.
  Installation of user scripts in the proper directories.
  Copyright correction and dictionnary update.
  modified scripts:
    config/cs_auto_flags.sh
    config/cs_bft.m4
    config/cs_blas.m4
    config/cs_fvm.m4
    config/cs_libxml2.m4
    config/cs_mpi.m4
    config/cs_tools.m4
    configure.ac
    Makefile.am
    sbin/backup
  modified routine:
    include/base/cs_base.h
    src/base/cs_base.c
  updated dictionnary:
    po/fr.po
    po/remove-potcdate.sed

* 06/03/2009 - David Monfort <david.monfort@edf.fr>
  Rename cs_lagrang in cs_lagr.
  modified files:
    po/POTFILES.in
    src/lagr/Makefile.am
  removed routines:
    include/lagr/cs_lagrang.h
    src/lagr/cs_lagrang.c
  added routines:
    include/lagr/cs_lagr.h
    src/lagr/cs_lagr.c

* 06/03/2009 - Yvan Fournier <yvan.fournier@edf.fr>
  Fix a bug when running in benchmark mode.
  modified routine:
    src/base/cs_main.c

* 06/03/2009 - Yvan Fournier <yvan.fournier@edf.fr>
  Move from a global location to a local some specific
  MPI types.
  modified routines:
    include/base/cs_base.h
    src/base/cs_base.c
    src/base/cs_parall.c

* 06/03/2009 - Yvan Fournier <yvan.fournier@edf.fr>
  Rename cs_ecs_messages in cs_preprocessor_data.
  modified files:
    po/POTFILES.in
    src/base/cs_main.c
    src/base/Makefile.am
  removed routines:
    include/base/cs_ecs_messages.h
    src/base/cs_ecs_messages.c
  added routines:
    include/base/cs_preprocessor_data.h
    src/base/cs_preprocessor_data.c

* 06/03/2009 - Yvan Fournier <yvan.fournier@edf.fr>
  Remove unnecessary specific exit handling.
  modified routines:
    include/base/cs_base.h
    src/base/cs_base.c
    src/base/cs_calcium.c

* 05/03/2009 - David Monfort <david.monfort@edf.fr>
  First integration of the autoconfiscation of the build
  system.
  Add a bootstrap script, config files, Makefile.am
  files and configure.ac script.
  Add a Makefile.am file in every src sub-directory and
  modify C sources to account for the cs_config.h header.
  Add also some mandatory files in the root directory.
  added scripts:
    config
    config/cs_auto_flags.sh
    config/cs_bft.m4
    config/cs_blas.m4
    config/cs_fvm.m4
    config/cs_libxml2.m4
    config/cs_mpi.m4
    config/cs_tools.m4
    configure.ac
    INSTALL
    Makefile.am
    NEWS
    README
    sbin/bootstrap
    src/atmo/Makefile.am
    src/base/Makefile.am
    src/cfbl/Makefile.am
    src/cogz/Makefile.am
    src/cplv/Makefile.am
    src/ctwr/Makefile.am
    src/elec/Makefile.am
    src/fuel/Makefile.am
    src/lagr/Makefile.am
    src/mati/Makefile.am
    src/pprt/Makefile.am
    src/rayt/Makefile.am
  modified routines:
    src/base/cs_ale.c
    src/base/cs_ast_coupling.c
    src/base/cs_base.c
    src/base/cs_benchmark.c
    src/base/cs_blas.c
    src/base/cs_calcium.c
    src/base/cs_coupling.c
    src/base/cs_ecs_messages.c
    src/base/cs_ext_neighborhood.c
    src/base/cs_gradient.c
    src/base/cs_grid.c
    src/base/cs_gui.c
    src/base/cs_gui_matisse.c
    src/base/cs_gui_radiative_transfer.c
    src/base/cs_gui_util.c
    src/base/cs_halo.c
    src/base/cs_io.c
    src/base/cs_main.c
    src/base/cs_matrix.c
    src/base/cs_mesh.c
    src/base/cs_mesh_coherency.c
    src/base/cs_mesh_connect.c
    src/base/cs_mesh_halo.c
    src/base/cs_mesh_quality.c
    src/base/cs_mesh_quantities.c
    src/base/cs_mesh_solcom.c
    src/base/cs_mesh_warping.c
    src/base/cs_multigrid.c
    src/base/cs_opts.c
    src/base/cs_parall.c
    src/base/cs_perio.c
    src/base/cs_post.c
    src/base/cs_proxy_comm.c
    src/base/cs_renumber.c
    src/base/cs_restart.c
    src/base/cs_sat_coupling.c
    src/base/cs_selector.c
    src/base/cs_sles.c
    src/base/cs_syr3_comm.c
    src/base/cs_syr3_coupling.c
    src/base/cs_syr3_messages.c
    src/base/cs_syr4_coupling.c
    src/base/cs_syr_coupling.c
    src/base/cs_tpar1d.c
    src/base/cs_ventil.c
    src/base/tcpumx.c
    src/base/tremai.c
    src/ctwr/cs_ctwr_air_props.c
    src/ctwr/cs_ctwr.c
    src/ctwr/cs_ctwr_halo.c
    src/lagr/cs_lagrang.c
    src/lagr/cs_lagr_perio.c

* 05/03/2009 - David Monfort <david.monfort@edf.fr>
  Rename HAVE_XML macros to HAVE_LIBXML2 to give a better
  view of what is needed in the code.
  modified routines:
    src/base/cs_gui.c
    src/base/cs_gui_util.c
    src/base/cs_opts.c

* 04/03/2009 - Yvan Fournier <yvan.fournier@edf.fr>
               David Monfort <david.monfort@edf.fr>
  Cosmethic changes (committed in two revisions).
  modified routines:
    include/base/cs_base.h
    include/base/cs_parall.h
    include/base/cs_matrix.h
    include/base/cs_halo.h
    include/base/cs_mesh.h
    src/base/caltri.f90
    src/base/cs_benchmark.c
    src/base/cs_base.c
    src/base/cs_halo.c
    src/base/cs_matrix.c
    src/base/cs_mesh_quantities.c
    src/base/cs_mesh_warping.c
    src/base/cs_parall.c
    src/base/cs_syr_coupling.c
    users/base/usray3.F
    users/base/usray4.F
    users/base/usray5.F
  modified script:
    bin/runcase

* 04/03/2009 - Yvan Fournier <yvan.fournier@edf.fr>
               David Monfort <david.monfort@edf.fr>
  Add a sleep function in error handling to avoid multiple output
  in case of parallelism. Protect the cs_calcium.c sleep call with
  a test on _POSIX_SOURCE.
  modified routine:
    src/base/cs_base.c
    src/base/cs_calcium.c

* 04/03/2009 - Yvan Fournier <yvan.fournier@edf.fr>
  Fix a bug in cs_benchmark.c (n_faces instead of n_cells).
  modified routine:
    src/base/cs_benchmark.c

* 04/03/2009 - David Monfort <david.monfort@edf.fr>
  Rename every _CS_HAVE_xxx macro in the more standard HAVE_xxx

* 04/03/2009 - Yvan Fournier <yvan.fournier@edf.fr>
  Refactoring the code in a stand-alone plug-in for YACS, thus
  the complex part of the shared library build is removed.
  modified routines:
    include/base/cs_base.h
    include/base/cs_calcium.h
    include/base/cs_opts.h
    src/base/cs_base.c
    src/base/cs_calcium.c
    src/base/cs_main.c
    src/base/cs_opts.c
  modified scripts:
    bin/macros_Blue_Gene_L.mk
    bin/macros_Blue_Gene_P.mk
    bin/macros_Darwin.mk
    bin/macros_Linux_Ch.mk
    bin/macros_Linux_IA64.mk
    bin/macros_Linux.mk
    bin/macros_Linux_x86_64.mk
    bin/macros_SX9.mk
    bin/Makefile
    sbin/install
  added file:
    extras/cs_component.py

* 04/03/2009 - Bertrand Sapa <bertrand-externe.sapa@edf.fr>
  Correction on some missing "ipproc" indirections for several
  arguments in the call to the "rmodak" subroutine.
  modified routine:
    src/pprt/ppcabs.f90

* 04/03/2009 - David Monfort <david.monfort@edf.fr>
  Fix wrong test when tagging user files with version number.
  modified script:
    bin/Makefile

* 25/02/2009 - David Monfort <david.monfort@edf.fr>
  Fix wrong commit of the cs_profile script.
  modified script:
    bin/cs_profile

* 25/02/2009 - David Monfort <david.monfort@edf.fr>
               Yvan Fournier <yvan.fournier@edf.fr>
  Conversion of all the Fortran files (headers included)
  form fixed F77 format to free f90 format. A small-case
  extension is used so that one can, in the future, skip the
  preprocessing stage.
  Moreover the herebelow scripts have been updated to take
  into account the changes, especially the Makefile and macros
  files (to enforce the preprocessing stage by a correct compiler
  option).
  modified scripts:
    sbin/rmb
    bin/compiler_version
    bin/macros_Linux_Ch.mk
    bin/cs_profile
    bin/macros_Linux_x86_64.mk
    bin/cs_create
    bin/macros_Linux_IA64.mk
    bin/macros_SX9.mk
    bin/check_consistency
    bin/macros_Darwin.mk
    bin/runcase
    bin/macros_Linux.mk
    bin/macros_Blue_Gene_L.mk
    bin/Makefile
    bin/macros_Blue_Gene_P.mk

* 23/02/2009 - David Monfort <david.monfort@edf.fr>
  Minor corrections in file list optimization.
  modified scripts:
    bin/macros_Blue_Gene_L.mk
    bin/macros_Blue_Gene_P.mk
    bin/macros_Darwin.mk

* 23/02/2009 - Yvan Fournier <yvan.fournier@edf.fr>
  Correction in the mesh structure update when renumbering cells.
  modified routines:
    src/base/cs_renumber.c

* 23/02/2009 - David Monfort <david.monfort@edf.fr>
  Minor modifications on halos routines (no impact).
  modified routines:
    src/base/cs_mesh_halo.c
    src/ctwr/cs_ctwr_halo.c

* 23/02/2009 - David Monfort <david.monfort@edf.fr>
  Correction for tests based on IVERIF variable in usini1.F, bug
  introduced when merging the different verification tests.
  modified routine:
    users/base/usini1.F

* 23/02/2009 - David Monfort <david.monfort@edf.fr>
  Remove unused cs_mesh_select feature (replaced by fvm_selector
  for SYRTHES coupling).
  modified routines:
    src/base/cs_sat_coupling.c
    src/base/cs_syr_coupling.c
  deleted routines:
    include/base/cs_mesh_select.h
    src/base/cs_mesh_select.c

* 23/02/2009 - David Monfort <david.monfort@edf.fr>
  Porting to NEC SX9: replace VPP 5000 vectorization directives
  by NEC ones (!OCL... => !CDIR...) and add a specific macros file.
  Also add new AR and ARFLAGS variables in the Makefile so that one
  can specify the archiver.
  Thanks to HLRS for the modifications.
  added script:
    bin/macros_SX9.mk
  modified scripts:
    bin/macros_Blue_Gene_L.mk
    bin/macros_Blue_Gene_P.mk
    bin/macros_Darwin.mk
    bin/macros_Linux_Ch.mk
    bin/macros_Linux_IA64.mk
    bin/macros_Linux.mk
    bin/macros_Linux_x86_64.mk
    bin/Makefile
  modified routines:
    src/base/bilsc2.F
    src/base/cs_sles.c
    src/base/divmas.F
    src/base/gradmc.F
    src/base/gradrc.F
    src/base/matrdt.F
    src/base/matrix.F
    src/base/promav.F
    src/base/proxav.F
    src/base/recvmc.F
    src/base/tstvec.F
    src/base/vissec.F
    src/cfbl/cfbsc2.F
    src/cfbl/cfbsc3.F
    src/cfbl/cfdivs.F
    src/cplv/cplym1.F

* 23/02/2009 - David Monfort <david.monfort@edf.fr>
  Add a --version option to get Code_Saturne version number.
  modified routine:
    src/base/cs_opts.c
  updated dictionary:
    po/fr.po

* 23/02/2009 - David Monfort <david.monfort@edf.fr>
  Install the user subroutines and the documentation within
  a standard "arch/$NOM_ARCH/share" directory.
  Minor corrections in these scripts as well.
  modified scripts:
    bin/cs_create
    bin/cs_info
    bin/Makefile
    sbin/install

* 23/02/2009 - David Monfort <david.monfort@edf.fr>
  Typo in macro use (CS_ARCH_Linux instead of _CS_ARCH_Linux).
  modified routine:
    src/base/cs_proxy_comm.c

* 18/02/2009 - David Monfort <david.monfort@edf.fr>
  Minor modifications to make Fortran files to be compiled as
  Fortran 95 source files after conversion (in three commits).
  modified routines:
    src/base/causta.F
    src/base/crstgr.F
    src/base/divrij.F
    src/base/inimas.F
    src/base/projts.F
    src/cogz/pdfpp4.F
    src/cplv/cpphy2.F
    src/elec/elphyv.F
    src/elec/eltssc.F
    src/pprt/memppt.F

* 16/02/2009 - David Monfort <david.monfort@edf.fr>
  Change the mesh quality verification behaviour. The different
  gradient calculation modes are now done in one pass. Thus, only
  one option remains for the command line (-q, with no sub-option).
  modified routines:
    include/base/cs_opts.h
    src/base/caltri.F
    src/base/cs_main.c
    src/base/cs_opts.c
    src/base/initi1.F
    src/base/memtri.F
    src/base/modini.F
    src/base/testel.F
  modified documentation:
    bin/runcase.help
    doc/USER/latex/saturne1.tex
    po/fr.po

* 16/02/2009 - David Monfort <david.monfort@edf.fr>
  Change cs_glob_base_nbr, cs_glob_base_rang and cs_glob_base_mpi_comm
  in cs_glob_n_ranks, cs_glob_rank_id and cs_glob_mpi_comm (resp.).
  modified routines:
    include/base/cs_base.h
    include/base/cs_sat_coupling.h
    src/base/cs_ast_coupling.c
    src/base/cs_base.c
    src/base/cs_benchmark.c
    src/base/cs_coupling.c
    src/base/cs_ecs_messages.c
    src/base/cs_ext_neighborhood.c
    src/base/cs_gradient.c
    src/base/cs_grid.c
    src/base/cs_gui.c
    src/base/cs_halo.c
    src/base/cs_io.c
    src/base/cs_main.c
    src/base/cs_mesh.c
    src/base/cs_mesh_halo.c
    src/base/cs_mesh_quality.c
    src/base/cs_mesh_warping.c
    src/base/cs_multigrid.c
    src/base/cs_opts.c
    src/base/cs_parall.c
    src/base/cs_perio.c
    src/base/cs_post.c
    src/base/cs_proxy_comm.c
    src/base/cs_renumber.c
    src/base/cs_restart.c
    src/base/cs_sat_coupling.c
    src/base/cs_sles.c
    src/base/cs_syr3_comm.c
    src/base/cs_syr3_coupling.c
    src/base/cs_syr3_messages.c
    src/base/cs_syr4_coupling.c
    src/base/cs_tpar1d.c
    src/base/cs_ventil.c
    src/ctwr/cs_ctwr.c
    src/ctwr/cs_ctwr_halo.c
    src/lagr/cs_lagr_perio.c

* 16/02/2009 - François Jusserand <francois.jusserand@edf.fr>
  Fix Code_Aster coupling for sequential calculations.
  modified routines:
    include/base/cs_ast_coupling.h
    src/base/cs_ast_coupling.c
    src/base/cs_main.c
    src/base/strdep.F
    src/base/strini.F
    src/base/strpre.F

* 16/02/2009 - David Monfort <david.monfort@edf.fr>
  Update of french dictionnary and list of gettextized files.
  modified files:
    po/fr.po
    po/POTFILES.in

* 16/02/2009 - Yvan Fournier <yvan.fournier@edf.fr>
  Bug correction in the MPI environment guess script.
  modified script:
    bin/runcase_mpi_env

* 16/02/2009 - Yvan Fournier <yvan.fournier@edf.fr>
  Bug correction when closing files with MPI I/O enabled.
  modified routine:
    src/base/cs_io.c

* 16/02/2009 - Yvan Fournier <yvan.fournier@edf.fr>
  The kernel is now able to post-process edges for a given
  mesh via the PSTEDG subroutine. This functionnality is
  thus removed from the preprocessor.
  modified routines:
    include/base/cs_post.h
    src/base/cs_post.c

* 16/02/2009 - Yvan Fournier <yvan.fournier@edf.fr>
  English translation of the post-processing management.
  modified routines:
    include/base/cs_post.h
    include/base/cs_prototypes.h
    src/base/cs_main.c
    src/base/cs_mesh_quality.c
    src/base/cs_mesh_solcom.c
    src/base/cs_mesh_warping.c
    src/base/cs_multigrid.c
    src/base/cs_post.c
    src/base/cs_syr3_coupling.c
    src/base/cs_syr4_coupling.c
    src/ctwr/cs_ctwr.c

* 16/02/2009 - David Monfort <david.monfort@edf.fr>
  Rename cs_suite.[hc] files in cs_restart.[hc]

* 16/02/2009 - David Monfort <david.monfort@edf.fr>
  Wrong commit for cs_suite.c
  modified routine:
    src/base/cs_suite.c

* 16/02/2009 - Yvan Fournier <yvan.fournier@edf.fr>
  English translation of the restart files management.
  Also add a basic timer for the restart files process.
  modified routines:
    include/base/cs_tpar1d.c
    src/base/cs_main.c
    src/base/cs_suite.c
    src/base/cs_tpar1d.c

* 16/02/2009 - Yvan Fournier <yvan.fournier@edf.fr>
  English translation of the SolCom format reader.
  modified routines:
    include/base/cs_mesh_solcom.h
    src/base/cs_main.c
    src/base/cs_mesh_solcom.c

* 16/02/2009 - Yvan Fournier <yvan.fournier@edf.fr>
  Add cell renumbering capability and re-organize face
  renumbering process.
  added routine:
    src/base/tstvec.F
  modified routines:
    include/base/cs_halo.h
    include/base/cs_mesh.h
    include/base/cs_post.h
    include/base/cs_prototypes.h
    src/base/cs_ext_neighborhood.c
    src/base/cs_halo.c
    src/base/cs_mesh.c
    src/base/cs_post.c
    src/base/cs_renumber.c
    src/base/numvec.F

* 13/02/2009 - Yvan Fournier <yvan.fournier@edf.fr>
  Better english and french!
  modified routines:
    src/base/cs_multigrid.c
    src/base/ecrava.F
    src/base/ecrlis.F
    users/base/usvpst.F

* 13/02/2009 - Yvan Fournier <yvan.fournier@edf.fr>
  SYRTHES coupling change set. Correction for SYRTHES 4 coupling
  and corresponding modifications for SYRTHES 3 coupling).
  Upgrade to syr_cs 2.3.0
  modified script:
    bin/cs_profile
  modified routines
    include/base/cs_syr3_comm.h
    include/base/cs_syr3_coupling.h
    include/base/cs_syr3_messages.h
    include/base/cs_syr4_coupling.h
    include/base/cs_syr_coupling.h
    src/base/caltri.F
    src/base/cs_coupling.c
    src/base/cs_syr3_comm.c
    src/base/cs_syr3_coupling.c
    src/base/cs_syr3_messages.c
    src/base/cs_syr4_coupling.c
    src/base/cs_syr_coupling.c

* 13/02/2009 - Yvan Fournier <yvan.fournier@edf.fr>
  Documentation update (mainly the mesh formats documentation
  that have been removed from the preprocessor manual).
  modified files:
    doc/style/csdoc.sty
    doc/USER/saturne1.tex
    doc/USER/user.tex

* 13/02/2009 - Yvan Fournier <yvan.fournier@edf.fr>
  From now on, use fvm_part_to_block/fvm_block_to_part
  for restart files writing/reading.
  Upgrade to FVM version 0.13.0
  modified macros:
    bin/macros_Blue_Gene_L.mk
    bin/macros_Blue_Gene_P.mk
    bin/macros_Darwin.mk
    bin/macros_Linux_Ch.mk
    bin/macros_Linux_IA64.mk
    bin/macros_Linux.mk
    bin/macros_Linux_x86_64.mk
  modified file:
    COMPATIBILITY
  modified routine:
    src/base/cs_suite.c

* 13/02/2009 - Yvan Fournier <yvan.fournier@edf.fr>
  Free more memory (less valgrind errors...).
  modified routine:
    src/base/cs_gui.c

* 13/02/2009 - Yvan Fournier <yvan.fournier@edf.fr>
  Minor correction and new matrix.vector product tests.
  modified routine:
    src/base/cs_benchmark.c

* 13/02/2009 - Yvan Fournier <yvan.fournier@edf.fr>
  Correction in the MPI initialization in case of coupling.
  modified routine:
    src/base/cs_base.c

* 13/02/2009 - Yvan Fournier <yvan.fournier@edf.fr>
  CS_MIN/MAX macros are now consistant with Bull's ones.
  modified routines:
    include/base/cs_base.h
    src/base/cs_matrix.c

* 13/02/2009 - Yvan Fournier <yvan.fournier@edf.fr>
  Code_Aster coupling update (YACS side).
  modified routines:
    include/base/cs_calcium.h
    src/base/cs_ast_coupling.c
    src/base/cs_calcium.c
    src/base/cs_main.c

* 13/02/2009 - Marc Sakiz <marc.sakiz@edf.fr>
  Minor corrections and updates in the documentation.
  modified files:
    doc/style/csdoc.sty
    doc/TUTORIAL/latex/case5.tex

* 13/02/2009 - Marc Sakiz <marc.sakiz@edf.fr>
  Minor changes in the 1D-profile generation iva the GUI.
  modified routine:
    src/base/cs_gui.c

* 13/02/2009 - David Monfort <david.monfort@edf.fr>
  Upgrade to new compilers, drivers and librairies on BG/L
  and BG/P architecture.
  modified scripts:
    bin/macros_Blue_Gene_L.mk
    bin/macros_Blue_Gene_P.mk

* 13/02/2009 - David Monfort <david.monfort@edf.fr>
  Add consistency checks for the atmospheric and cooling
  towers modules.
  modified script:
    bin/check_consistency

* 13/02/2009 - David Monfort <david.monfort@edf.fr>
  Add the executable bit for runcase_syrthes.
  modified script:
    bin/runcase_syrthes

* 02/02/2009 - David Monfort <david.monfort@edf.fr>
  Minor correction in help output.
  modified script:
    bin/cs_create

* 02/02/2009 - Marc Sakiz <marc.sakiz@edf.fr>
  Fix a bug when no wall is present on a domain for the 1D
  wall thermal module.
  modified routine:
    src/base/cs_tpar1d.c

* 28/11/2008 - David Monfort <david.monfort@edf.fr>
  Release of Code_Saturne version 1.4.0

* 28/11/2008 - François Jusserand <francois.jusserand@edf.fr>
               Marc Sakiz <marc.sakiz@edf.fr>
               David Monfort <david.monfort@edf.fr>
  First integration of the Code_Aster coupling capability.
  Not yet tested! Not ye compatible with parallelism.
  added routines:
    include/base/alaste.h
    include/base/cs_ast_coupling.h
    src/base/cs_ast_coupling.c
    users/base/usaste.F
  modified routines:
    include/base/paramx.h
    src/base/lecamx.F
    src/base/ecrava.F
    src/base/strdep.F
    src/base/strini.F
    src/base/iniini.F
    src/base/strpre.F
    src/base/tridim.F

* 28/11/2008 - David Monfort <david.monfort@edf.fr>
  Update french dictionnary.

* 28/11/2008 - David Monfort <david.monfort@edf.fr>
  Correction on a wrong test for boundary conditions settings
  with specific physics.
  modified routine:
    src/base/tridim.F

* 28/11/2008 - David Monfort <david.monfort@edf.fr>
               Jérôme Lucas <jerome.lucas@incka.fr>
  Complete the cooling towers feature.
  Still not complet and no restarting or parallelism.
  added routines:
    include/ctwr/cs_ctwr_air_props.h
    include/ctwr/cs_ctwr.h
    include/ctwr/cs_ctwr_halo.h
    src/ctwr/cs_ctwr_air_props.c
    src/ctwr/cs_ctwr.c
    src/ctwr/cs_ctwr_halo.c
    users/ctwr/usctdz.F
  modified routines:
    src/base/cregeo.F
    src/base/cs_main.c
    src/ctwr/ctphyv.F
    users/pprt/usppmo.F

* 28/11/2008 - David Monfort <david.monfort@edf.fr>
  Add a second routine for a second pass of initialization when
  modelling gas combustion in order to avoid mis-understanding
  of "variable initialization"...
  added routine:
    src/pprt/ppinv2.F
  modified routine:
    scr/base/scalai.F

* 28/11/2008 - David Monfort <david.monfort@edf.fr>
  Add the cstphy.h header in cregeo.F in order to ease
  the cooling towers integration.
  modified routines:
    src/base/caltri.F
    src/base/cregeo.F

* 27/11/2008 - David Monfort <david.monfort@edf.fr>
  Increase Code_Saturne version number to 1.4.0

* 27/11/2008 - David Monfort <david.monfort@edf.fr>
  Remove the splash screen at the GUI launch.
  modified script:
    bin/SaturneGUI

* 27/11/2008 - David Monfort <david.monfort@edf.fr>
  Add a QUALITY_ASSURANCE file which precises if the current
  version of Code_Saturne is validated under EDF quality
  assurance.
  added file:
    QUALITY_ASSURANCE

* 26/11/2008 - David Monfort <david.monfort@edf.fr>
  Add stubs for cooling towers subroutines and preparation
  of the cooling towers modelling integration.
  added routines:
    include/ctwr/ctincl.h
    src/ctwr/ctini1.F
    src/ctwr/ctiniv.F
    src/ctwr/ctphyv.F
    src/ctwr/cttssc.F
    src/ctwr/ctvarp.F
    users/ctwr/usctcl.F
    users/ctwr/uscti1.F
    users/ctwr/usctiv.F
  modified scripts:
    bin/Makefile
    sbin/install
  updated dictionnary:
    po/fr.po
  modified routines:
    include/base/cs_gui.h
    include/base/entsor.h
    include/pprt/ppincl.h
    src/base/cs_gui.c
    src/base/cs_post.c
    src/base/haltyp.F
    src/base/iniini.F
    src/base/inipst.F
    src/base/iniusi.F
    src/base/varpos.F
    src/pprt/ppclim.F
    src/pprt/ppcsca.F
    src/pprt/ppini1.F
    src/pprt/ppiniv.F
    src/pprt/ppphyv.F
    src/pprt/ppprcl.F
    src/pprt/pptssc.F
    src/pprt/ppvarp.F
    users/pprt/usppmo.F

* 26/11/2008 - David Monfort <david.monfort@edf.fr>
  Replace a test by an equivalent but simpler one.
  modified routine:
    src/rayt/rayopt.F

* 26/11/2008 - Marc Sakiz <marc.sakiz@edf.fr>
  Change the behaviour of the boundary conditions handling
  for the atmospheric module (let the user change the type
  of boundary condition even when a meteo profile file is
  read).
  modified routines:
    src/atmo/attycl.F
    users/atmo/usatcl.F

* 26/11/2008 - David Monfort <david.monfort@edf.fr>
  Add missing modifications for the atmospheric modelling.
  Without this patch, the code does not compile.
  modified routines:
    include/pprt/ppincl.h
    src/base/caltri.F
    src/base/varpos.F
    src/rayt/rayopt.F

* 25/11/2008 - Maya Milliez <maya.milliez@edf.fr>
               Bertrand Carissimo <bertrand.carissimo@edf.fr>
               Marc Sakiz <marc.sakiz@edf.fr>
  Integration of the atmospheric flow modelling for neutral
  atmosphere flows.
  modified scripts:
    bin/Makefile
    bin/runcase
    bin/runcase.help
    sbin/install
  modified routines:
    include/base/entsor.h
    include/base/cs_gui.h
    src/base/cs_gui.c
    src/base/iniini.F
    src/base/iniusi.F
    src/pprt/memppt.F
    src/pprt/ppclim.F
    src/pprt/ppcsca.F
    src/pprt/ppini1.F
    src/pprt/ppinii.F
    src/pprt/ppiniv.F
    src/pprt/ppprcl.F
    src/pprt/pptycl.F
    users/pprt/usppmo.F
  added routines:
    include/atmo
    include/atmo/atincl.h
    src/atmo
    src/atmo/atini1.F
    src/atmo/atiniv.F
    src/atmo/atlecm.F
    src/atmo/attycl.F
    src/atmo/intprf.F
    src/atmo/mematm.F
    users/atmo
    users/atmo/usatcl.F
    users/atmo/usati1.F
    users/atmo/usativ.F

* 25/11/2008 - Marc Sakiz <marc.sakiz@edf.fr>
  Add a common whose value depends whether the simulation
  uses a specific physics and if the radiative transfer
  modelling is enabled with a parametric file or not,
  preparing for the integration of the atmospheric modelling.
  modified routines:
    include/base/cs_gui.h
    include/pprt/ppincl.h
    src/base/caltri.F
    src/base/condli.F
    src/base/covofi.F
    src/base/cs_gui.c
    src/base/impini.F
    src/base/inivar.F
    src/base/memtri.F
    src/base/phyvar.F
    src/base/precli.F
    src/base/scalai.F
    src/base/tridim.F
    src/base/varpos.F
    src/base/verini.F
    src/rayt/raycli.F
    src/rayt/raydom.F
    src/rayt/rayopt.F
    users/rayt/usray1.F
    users/rayt/usray3.F

* 25/11/2008 - David Monfort <david.monfort@edf.fr>
  Update AUTHORS file.

* 25/11/2008 - David Monfort <david.monfort@edf.fr>
  Activate the multigrid algorithm for pressure by default.
  modified routine:
    users/base/usini1.F

* 24/11/2008 - David Monfort <david.monfort@edf.fr>
  Upgrade to GUI 1.4.d

* 24/11/2008 - Alexandre Douce <alexandre.douce@edf.fr>
  Add an option for the multigrid algorithm in the GUI.
  modified routines:
    include/base/cs_gui.h
    src/base/cs_gui.c
    src/base/iniusi.F

* 20/11/2008 - David Monfort <david.monfort@edf.fr>
  Remove the -fbounds-check option (gfortran compiler)
  as it seems to corrupt the stack.
  modified scripts:
    bin/macros_Linux.mk
    bin/macros_Linux_x86_64.mk

* 20/11/2008 - David Monfort <david.monfort@edf.fr>
  English translation of most of the missing C sources.
  modified routines:
    include/base/cs_gui.h
    include/base/cs_post.h
    include/base/cs_sat_coupling.h
    include/base/cs_tpar1d.h
    include/base/cs_ventil.h
    include/base/entsor.h
    include/fuel/fuincl.h
    include/mati/matiss.h
    src/base/cs_gui.c
    src/base/cs_gui_matisse.c
    src/base/cs_gui_radiative_transfer.c
    src/base/cs_gui_util.c
    src/base/cs_main.c
    src/base/cs_sat_coupling.c
    src/base/cs_tpar1d.c
    src/base/cs_ventil.c
  updated french dictionnary:
    po/fr.po
    po/POTFILES.in

* 19/11/2008 - David Monfort <david.monfort@edf.fr>
  Rename cs_couplage* sources to cs_sat_coupling*
  deleted routines:
    cs_couplage.h
    cs_couplage.c
  added routines:
    cs_sat_coupling.h
    cs_sat_coupling.c
  modified routines:
    cs_main.c
    cs_opts.c

* 17/11/2008 - David Monfort <david.monfort@edf.fr>
  Small correction on some output in cs_gui.c
  modified files:
    po/fr.po
    src/base/cs_gui.c

* 14/11/2008 - David Monfort <david.monfort@edf.fr>
  Set the precision on coarsest mesh equal to the one
  on finest mesh in the multigrid algorithm for better
  efficiency (and scalability).
  modified routine:
    src/base/cs_multigrid.c

* 14/11/2008 - Jérôme Bonelle <jerome.bonelle@edf.fr>
  Minor corrections and improvements.
  modified routines:
    src/base/cs_ext_neighborhood.c
    src/base/cs_ecs_messages.c
    src/base/cs_mesh.c

* 14/11/2008 - Yvan Fournier <yvan.fournier@edf.fr>
  Reformating comments and english translation.
  modified routines:
    include/base/cs_mesh_connect.h
    include/base/cs_mesh_solcom.h
    include/base/cs_prototypes.h
    include/base/tcpumx.h
    include/base/tremai.h
    src/base/cs_mesh_solcom.c
    src/base/tcpumx.c
    src/base/tremai.c
  modified dictionnary:
    po/fr.po

* 14/11/2008 - Yvan Fournier <yvan.fournier@edf.fr>
  Add a backup script for developpers.
  added script:
    sbin/backup

* 14/11/2008 - David Monfort <david.monfort@edf.fr>
  Merge documentation changes form the 1.3 branch (-r 777:778).
  modified documentation:
    THEORY/latex/Base/bilsc2.tex
    THEORY/latex/Base/clptrg.tex
    THEORY/latex/Base/clptur.tex
    THEORY/latex/Base/clsyvt.tex
    THEORY/latex/Base/condli.tex
    THEORY/latex/summary.tex
    THEORY/latex/theory.tex
    USER/latex/a1_autovalid.tex
    USER/latex/saturne1.tex
    USER/latex/saturne2.tex
  added documentation:
    THEORY/latex/Base/clptrg.tex

* 13/11/2008 - David Monfort <david.monfort@edf.fr>
  Updating Code_Saturne version number to 1.4.c and prerequisites.
  modified files:
    doc/style/csdoc.sty
    doc/THEORY/latex/theory.tex
    bin/cs_profile
    bin/Makefile
    bin/macros_Blue_Gene_P.mk
    COMPATIBILITY

* 13/11/2008 - Yvan Fournier <yvan.fournier@edf.fr>
               David Monfort <david.monfort@edf.fr>
  Minor modifications in scripts, macros and docs.
  modified docs:
    doc/USER/latex/saturne1.tex
  modified scripts:
    bin/macros_Linux.mk
    bin/macros_Linux_x86_64.mk
    bin/runcase_syrthes

* 13/11/2008 - Yvan Fournier <yvan.fournier@edf.fr>
  Correction of the outputs english translation.
  modified routine:
    src/base/lecamx.F

* 13/11/2008 - Yvan Fournier <yvan.fournier@edf.fr>
  Bug correction and english translation in the restart file code.
  modified file:
    po/fr.po
  modified routines:
    include/base/cs_suite.h
    src/base/cs_suite.c

* 07/11/2008 - David Monfort <david.monfort@edf.fr>
  Updating the french dictionnary.
  modified file:
    po/fr.po

* 07/11/2008 - Yvan Fournier <yvan.fournier@edf.fr>
  Bug correction in the restart file reading.
  modified routine:
    src/base/cs_suite.c

* 07/11/2008 - Yvan Fournier <yvan.fournier@edf.fr>
  Bug correction in the SYRTHES coupling initialization.
  modified routine:
    src/base/cs_syr_coupling.c

* 07/11/2008 - David Monfort <david.monfort@edf.fr>
  Remove the dependency to BLAS in the Fortran dot products
  because one always provides Fortran wrappers in the C code.
  modified script:
    bin/Makefile
  modified routines:
    src/base/prodsc.F
    src/base/prods2.F
    src/base/prods3.F

* 07/11/2008 - David Monfort <david.monfort@edf.fr>
  Replace depecrated references to Tcl/Tk/Tix by PyQt ones.
  Update the wrapper around the Graphical User Interface.
  modified files:
    COMPATIBILITY
    bin/SaturneGUI

* 05/11/2008 - David Monfort <david.monfort@edf.fr>
  Always set the head loss tensor to be a full symmetric tensor
  in order to ease the setup within the Graphical User Interface
  (NCKPDC has been removed and replaced by the constant 6).
  modified documentation:
    doc/TUTORIAL/latex/case4.tex
    doc/USER/latex/saturne1.tex
  modified routines:
    include/base/pointe.h
    src/base/caltri.F
    src/base/covofi.F
    src/base/dttvar.F
    src/base/iniini.F
    src/base/mempdc.F
    src/base/navsto.F
    src/base/phyvar.F
    src/base/preduv.F
    src/base/reseps.F
    src/base/resolp.F
    src/base/resrij.F
    src/base/resssg.F
    src/base/resv2f.F
    src/base/scalai.F
    src/base/tridim.F
    src/base/tsepdc.F
    src/base/turbke.F
    src/base/turbkw.F
    src/base/turrij.F
    src/base/visdyn.F
    src/base/vislmg.F
    src/base/vissec.F
    src/base/vissma.F
    src/base/vissst.F
    src/cfbl/cfdivs.F
    src/cfbl/cfdttv.F
    src/cfbl/cfener.F
    src/cfbl/cfmsfl.F
    src/cfbl/cfmsgs.F
    src/cfbl/cfmsvl.F
    src/cfbl/cfqdmv.F
    src/cogz/ebutss.F
    src/cogz/lwctss.F
    src/cplv/cpltss.F
    src/cplv/cpltsv.F
    src/cplv/cptssc.F
    src/cplv/cptsvc.F
    src/elec/eltssc.F
    src/fuel/futssc.F
    src/fuel/futsvc.F
    src/mati/mtkpdc.F
    src/mati/mttsns.F
    src/mati/mttssc.F
    src/pprt/pptssc.F
    users/base/uskpdc.F
    users/base/ussmag.F
    users/base/ustske.F
    users/base/ustskw.F
    users/base/ustsma.F
    users/base/ustsns.F
    users/base/ustsri.F
    users/base/ustssc.F
    users/base/ustsv2.F
    users/base/usvist.F

* 05/11/2008 - Alexandre Douce <alexandre.douce@edf.fr>
               Nicole Picard <nicole-n.picard@edf.fr>
  Modifications in the XML reader related to the upgrade of the
  Graphical User Interface in version 1.4.c (now written in PyQt).
  Improvements in some areas but the Interface is not complete yet.
  modified script:
    bin/cs_profile
  modified routines:
    include/base/cs_gui.h
    include/base/cs_gui_util.h
    include/base/cs_prototypes.h
    src/base/caltri.F
    src/base/cs_gui.c
    src/base/cs_gui_radiative_transfer.c
    src/base/cs_gui_util.c
    src/base/iniusi.F
    src/base/stdtcl.F
    src/base/tridim.F
    src/cplv/cpltcl.F
    src/pprt/ppclim.F

* 05/11/2008 - Yvan Fournier <yvan.fournier@edf.fr>
  Fix a bug arising when the ratio between the number of
  processors and the number of cells is two high.
  modified routine:
    src/base/cs_ecs_messages.c

* 05/11/2008 - Yvan Fournier <yvan.fournier@edf.fr>
  Makefile simplifications.
  modified script:
    bin/Makefile

* 05/11/2008 - Yvan Fournier <yvan.fournier@edf.fr>
  Major overhauling of the SYRTHES coupling: upgrade to
  FVM 0.12.0 and its coupling library, coupling with SYRTHES 3
  and in the future SYRTHES 4 available, definition of coupling
  via a user subroutine instead of a script command, simpler
  MPI initialization.
  modified scripts:
    bin/cs_profile
    bin/Makefile
    bin/runcase
    bin/runcase.help
    bin/runcase_syrthes
  modified routines:
    include/base/cs_base.h
    include/base/cs_opts.h
    include/base/cs_syr3_comm.h
    include/base/cs_syr3_coupling.h
    include/base/cs_syr3_messages.h
    src/base/coupbi.F
    src/base/coupbo.F
    src/base/cregeo.F
    src/base/cs_base.c
    src/base/cs_couplage.c
    src/base/cs_main.c
    src/base/cs_opts.c
    src/base/cs_syr3_comm.c
    src/base/cs_syr3_coupling.c
    src/base/cs_syr3_messages.c
    src/base/initi1.F
  added routines:
    include/base/cs_coupling.h
    include/base/cs_syr4_coupling.h
    include/base/cs_syr_coupling.h
    src/base/cs_coupling.c
    src/base/cs_syr4_coupling.c
    src/base/cs_syr_coupling.c
    src/base/cs_syr_util.F
    users/base/ussyrc.F

* 05/11/2008 - David Monfort <david.monfort@edf.fr>
  Upgrading to FVM 0.12.0 (fix a bug with MPI/IO) and BFT 1.0.8.
  modified routine:
    src/base/cs_base.c
  modified scripts:
    bin/macros_Blue_Gene_L.mk
    bin/macros_Blue_Gene_P.mk
    bin/macros_Linux.mk
    bin/macros_Linux_Ch.mk
    bin/macros_Linux_IA64.mk
    bin/macros_Linux_x86_64.mk

* 04/11/2008 - David Monfort <david.monfort@edf.fr>
  Ditto for vector synchronization.
  modified routine:
    src/base/cs_perio.c

* 04/11/2008 - Yvan Fournier <yvan.fournier@edf.fr>
  Fix a bug if the simulation has a periodicity of a translation
  (missing test on the presence of rotation).
  modified routine:
    src/base/cs_perio.c

* 31/10/2008 - Richard Howard <richard.howard@edf.fr>
               David Monfort <david.monfort@edf.fr>
  Make the test on the convergence of the gradient reconstruction
  method dimensionless if the maximum control volume is greater
  than 1 (useful for some atmospheric simulations).
  modified routines:
    include/base/cstphy.h
    src/base/alemaj.F
    src/base/calgeo.F
    src/base/caltri.F
    src/base/clvolc.F
    src/base/cregeo.F
    src/base/gradrc.F

* 31/10/2008 - David Monfort <david.monfort@edf.fr>
  Fix a MPI blocking bug on the BlueGene/P system (from IBM).
  modified file:
    bin/macros_Blue_Gene_P.mk

* 30/10/2008 - David Monfort <david.monfort@edf.fr>
  Merging from the 1.3 branch (-r 736:741, updating macros, runcase
  adaptation for Salome, examples in uskpdc and usproj).

* 29/10/2008 - Yvan Fournier <yvan.fournier@edf.fr>
  English translation of code and comments in several files, along
  with some minor improvements.
  modified routines:
    bin/runcase
    include/base/cs_base.h
    include/base/cs_ecs_messages.h
    include/base/cs_grid.h
    include/base/cs_mesh_connect.h
    include/base/cs_mesh.h
    include/base/cs_opts.h
    include/base/cs_parall.h
    include/base/cs_post.h
    include/base/cs_prototypes.h
    src/base/coupbi.F
    src/base/coupbo.F
    src/base/cs_base.c
    src/base/cs_couplage.c
    src/base/cs_main.c
    src/base/cs_mesh.c
    src/base/cs_mesh_connect.c
    src/base/cs_mesh_quantities.c
    src/base/cs_mesh_warping.c
    src/base/cs_multigrid.c
    src/base/cs_opts.c
    src/base/cs_parall.c
    src/base/cs_post.c
    src/base/cs_sles.c
    src/base/cs_suite.c
    src/base/cs_syr3_coupling.c
    src/base/cs_tpar1d.c

* 29/10/2008 - Yvan Fournier <yvan.fournier@edf.fr>
  Fix a bug when extracting part of the mesh if there is no
  boundary face.
  modified routine:
    src/base/cs_ecs_messages.c

* 29/10/2008 - David Monfort <david.monfort@edf.fr>
  Merging from the 1.3 branch (-r 731:732, minor lagopt bug fix)

* 29/10/2008 - David Monfort <david.monfort@edf.fr>
  Add a COMMAND_REORIENT variable in the runcase in order
  to simplify the runcase setup by the GUI.
  modified scritps:
    bin/runcase
    bin/runcase.help
  
* 28/10/2008 - Yvan Fournier <yvan.fournier@edf.fr>
  Minor corrections and improvement in scripts.
  modified scripts:
    bin/cs_info
    bin/mpi_rank.sh

* 27/10/2008 - Yvan Fournier <yvan.fournier@edf.fr>
  Correction on the use of shared arrays.
  modified routine:
    src/base/crstgr.F
    src/base/cs_grid.c

* 27/10/2008 - Yvan Fournier <yvan.fournier@edf.fr>
  Add C functions to deal with face/cell selection.
  modified routines:
    include/base/cs_selector.h
    src/base/cs_selector.c

* 27/10/2008 - Yvan Fournier <yvan.fournier@edf.fr>
  Adding some Fortran prototypes for C callers.
  modified routine:
    include/base/cs_prototypes.h

* 27/10/2008 - Yvan Fournier <yvan.fournier@edf.fr>
  Several Makefile corrections and improvements.
  modified script:
    bin/Makefile

* 27/10/2008 - Yvan Fournier <yvan.fournier@edf.fr>
  Fix a bug in the mesh coherency check in case of translation.
  modified routine:
    src/base/cs_mesh_coherency.c

* 27/10/2008 - Yvan Fournier <yvan.fournier@edf.fr>
  Remove inconsistent comments.
  modified routine:
    src/base/initi1.F

* 27/10/2008 - Yvan Fournier <yvan.fournier@edf.fr>
  Change size_t variables to fvm_file_offt in order
  to bypass some possible limitations on BlueGene systems.
  modified routines:
    include/base/cs_io.h
    src/base/cs_io.c

* 27/10/2008 - Yvan Fournier <yvan.fournier@edf.fr>
  Fixing a bug when re-opening a file.
  modified routine:
    src/base/cs_io.c

* 27/10/2008 - David Monfort <david.monfort@edf.fr>
  Remove the forcing to ASCII mode for post-processing when
  the calculation is in verification mode.
  modified routine:
    src/base/initi1.F

* 27/10/2008 - David Monfort <david.monfort@edf.fr>
  Correction on a warning output (IPERIO instead of IRANGP).
  modified file:
    src/base/verini.F

* 27/10/2008 - David Monfort <david.monfort@edf.fr>
  Updating the dp_FUE file for fuel combustion to account 
  for the number of fuel classes.
  modified file:
    data/thch/dp_FUE

* 27/10/2008 - Mehdi Ouraou <mehdi.ouraou@edf.fr>
  Updating the dp_FCP file for coal combustion according
  to the new oxycombustion model.
  modified file:
    data/thch/dp_FCP

* 27/10/2008 - David Monfort <david.monfort@edf.fr>
  Move the autovalidation scripts to the extra directory.
  moved scripts:
    bin/Autovalidation
    bin/autovalid
    bin/autovalid.xml

* 27/10/2008 - David Monfort <david.monfort@edf.fr>
  Remove a redundant verification on the ICHRVR, ... variables.
  modified routine:
    src/cplv/cplver.F

* 27/10/2008 - David Monfort <david.monfort@edf.fr>
  Minor corrections in scripts.
  modified scripts:
    bin/check_consistency
    bin/check_mesh

* 27/10/2008 - David Monfort <david.monfort@edf.fr>
  English translation of part of the autovalidation scripts.
  modified scripts:
    bin/Autovalidation/Case.py
    bin/Autovalidation/Study.py

* 27/10/2008 - Yvan Fournier <yvan.fournier@edf.fr>
  Fixing a bug in cs_ecs_messages.c where all periodicities
  were added as a rotation.
  modified routine:
    src/base/cs_ecs_messages.c

* 27/10/2008 - David Monfort <david.monfort@edf.fr>
  Fixing a bug in cs_io.c where a file is closed twice.
  modified routine:
    src/base/cs_io.c

* 27/10/2008 - David Monfort <david.monfort@edf.fr>
  Remove the test on the number of cells in the restart files
  in varpos.F, as it is unknown at this moment.
  modified routine:
    src/base/varpos.F

* 10/10/2008 - David Monfort <david.monfort@edf.fr>
  Merging from the 1.3 branch (-r 705:706, minor lagopt bug fix)

* 01/10/2008 - David Monfort <david.monfort@edf.fr>
  Merging from the 1.3 branch (-r 701:704, missing argument
  and C89 syntax)

* 12/09/2008 - David Monfort <david.monfort@edf.fr>
  Remove all occurences of the CCRT machines "Tantale".
  modified files:
    TODO
    bin/cs_profile
    doc/USER/latex/saturne1.tex
    extras/macros_old/README
  removed file:
    bin/macros_Linux_CCRT.mk
  added file:
    extras/macros_old/macros_Linux_CCRT.mk

* 12/09/2008 - David Monfort <david.monfort@edf.fr>
  Temporary fix to avoid building a void CTWR library.
  modified scripts:
    bin/Makefile
    sbin/install

* 12/09/2008 - David Monfort <david.monfort@edf.fr>
  Updating french dictionnary.
  modified file:
    po/fr.po

* 12/09/2008 - Yvan Fournier <yvan.fournier@edf.fr>
  Minor correction on strings translation.
  modified routine:
    src/base/cs_multigrid.c

* 12/09/2008 - Jérôme Bonelle <jerome.bonelle@edf.fr>
  Correction on periodicity transfer from the preprocessor.
  modified routine:
    src/base/cs_ecs_messages.c
  
* 12/09/2008 - David Monfort <david.monfort@edf.fr>
  Replace all occurences of #if defined(__cplusplus) ...
  with a macro defined in cs_base.h for all C headers.
  The aim is to be able to compile the code with a C++
  compiler (for testing only).
  modified routines:
    src/base/cs_ale.c
    src/base/cs_base.c
    src/base/cs_benchmark.c
    src/base/cs_blas.c
    src/base/cs_calcium.c
    src/base/cs_couplage.c
    src/base/cs_ecs_messages.c
    src/base/cs_ext_neighborhood.c
    src/base/cs_gradient.c
    src/base/cs_grid.c
    src/base/cs_gui.c
    src/base/cs_gui_matisse.c
    src/base/cs_gui_radiative_transfer.c
    src/base/cs_gui_util.c
    src/base/cs_halo.c
    src/base/cs_io.c
    src/base/cs_main.c
    src/base/cs_matrix.c
    src/base/cs_mesh.c
    src/base/cs_mesh_coherency.c
    src/base/cs_mesh_connect.c
    src/base/cs_mesh_halo.c
    src/base/cs_mesh_quality.c
    src/base/cs_mesh_quantities.c
    src/base/cs_mesh_select.c
    src/base/cs_mesh_solcom.c
    src/base/cs_mesh_warping.c
    src/base/cs_multigrid.c
    src/base/cs_opts.c
    src/base/cs_parall.c
    src/base/cs_perio.c
    src/base/cs_post.c
    src/base/cs_proxy_comm.c
    src/base/cs_renumber.c
    src/base/cs_selector.c
    src/base/cs_sles.c
    src/base/cs_suite.c
    src/base/cs_syr3_comm.c
    src/base/cs_syr3_coupling.c
    src/base/cs_syr3_messages.c
    src/base/cs_tpar1d.c
    src/base/cs_ventil.c
    src/base/tcpumx.c
    src/base/tremai.c
    src/lagr/cs_lagrang.c
    src/lagr/cs_lagr_perio.c

* 12/09/2008 - David Monfort <david.monfort@edf.fr>
  Minor correction on the gettextize script (for old gettext tools).
  modified script:
    sbin/gettextize

* 12/09/2008 - Yvan Fournier <yvan.fournier@edf.fr>
               Marc Sakiz <marc.sakiz@edf.fr>
  Documentation improvement and corrections.
  modified files:
    doc/THEORY/latex/Base/introd.tex
    doc/THEORY/latex/Base/turbke.tex
    doc/USER/latex/saturne1.tex
    doc/USER/latex/user.tex
  removed file:
    doc/USER/graphics/halo.eps
  added files:
    doc/USER/graphics/cs_components.fig
    doc/USER/graphics/halo.pdf
    doc/USER/graphics/rota_perio_parall.jpg

* 12/09/2008 - David Monfort <david.monfort@edf.fr>
  Change char array initialization to comply with C++ error.
  modified routine:
    src/base/cs_proxy_commm.c

* 12/09/2008 - David Monfort <david.monfort@edf.fr>
  Revert to malloc call in cs_base.c because memory
  management has not been initialized before this call.
  modified routines:
    src/base/cs_base.c

* 12/09/2008 - David Monfort <david.monfort@edf.fr>
  Preparation for the cooling tower specific physics.
  modified script:
    bin/Makefile
    sbin/install
  added directories:
    include/ctwr
    src/ctwr
    users/ctwr

* 12/09/2008 - David Monfort <david.monfort@edf.fr>
  Revert to old behaviour when multigrid options were separated
  in two headers in order to use multigrid algorithm in codits
  subroutine.
  modified files:
    include/base/optcal.h
    src/base/calhyd.F
    src/base/codits.F
    src/base/distpr.F
    src/base/impini.F
    src/base/iniini.F
    src/base/resolp.F
    src/base/verini.F
  added header:
    include/base/mltgrd.h

* 12/09/2008 - David Monfort <david.monfort@edf.fr>
  Several corrections found with a C++ compiler (replace malloc
  function with BFT_MALLOC macro, exchange arguments in function
  call, replace false by NULL in a comparison). These issues had
  no impact on the code.
  modified routines:
    src/base/cs_base.c
    src/base/cs_matrix.c
    src/base/cs_mesh_warping.c

* 11/09/2008 - David Monfort <david.monfort@edf.fr>
  Makefile modification so that one does not need anymore to
  symlink all the headers in a user directory.
  modified script:
    bin/Makefile

* 11/09/2008 - David Monfort <david.monfort@edf.fr>
  Add a potential option for the Fortran preprocessor for CS_LANG.
  modified script:
    bin/Makefile

* 10/09/2008 - David Monfort <david.monfort@edf.fr>
  Remove unused variable (comm_buffer_size).
  modified file:
    src/base/cs_mesh_halo.c

* 10/09/2008 - David Monfort <david.monfort@edf.fr>
  Remove a comma at the end of an enum.
  modified file:
    include/base/cs_halo.h

* 10/09/2008 - David Monfort <david.monfort@edf.fr>
  Replace all occurences of #if defined(__cplusplus) ...
  with a macro defined in cs_base.h for all C headers.
  modified routines:
    include/base/cs_ale.h
    include/base/cs_base.h
    include/base/cs_benchmark.h
    include/base/cs_blas.h
    include/base/cs_calcium.h
    include/base/cs_couplage.h
    include/base/cs_ecs_messages.h
    include/base/cs_ext_neighborhood.h
    include/base/cs_gradient.h
    include/base/cs_grid.h
    include/base/cs_gui.h
    include/base/cs_gui_matisse.h
    include/base/cs_gui_radiative_transfer.h
    include/base/cs_gui_util.h
    include/base/cs_halo.h
    include/base/cs_io.h
    include/base/cs_matrix.h
    include/base/cs_mesh_coherency.h
    include/base/cs_mesh_connect.h
    include/base/cs_mesh.h
    include/base/cs_mesh_halo.h
    include/base/cs_mesh_quality.h
    include/base/cs_mesh_quantities.h
    include/base/cs_mesh_select.h
    include/base/cs_mesh_solcom.h
    include/base/cs_mesh_warping.h
    include/base/cs_multigrid.h
    include/base/cs_opts.h
    include/base/cs_parall.h
    include/base/cs_perio.h
    include/base/cs_post.h
    include/base/cs_prototypes.h
    include/base/cs_proxy_comm.h
    include/base/cs_renumber.h
    include/base/cs_selector.h
    include/base/cs_sles.h
    include/base/cs_suite.h
    include/base/cs_syr3_comm.h
    include/base/cs_syr3_coupling.h
    include/base/cs_syr3_messages.h
    include/base/cs_tpar1d.h
    include/base/cs_ventil.h
    include/base/tcpumx.h
    include/base/tremai.h
    include/lagr/cs_lagrang.h
    include/lagr/cs_lagr_perio.h

* 09/09/2008 - David Monfort <david.monfort@edf.fr>
  Remove unused headers in Fortran sources.
  modified routines:
    src/base/dvvpst.F
    src/base/iniini.F
    src/cogz/colecd.F
    src/cogz/lwcurl.F
    src/cplv/cplecd.F
    src/cplv/cprays.F
    src/cplv/cpthp2.F
    src/elec/ellecd.F
    src/fuel/fulecd.F
    src/fuel/futhp2.F
    src/lagr/lagaff.F
    src/lagr/lagcar.F
    src/lagr/lagcou.F
    src/lagr/lageqp.F
    src/lagr/lages1.F
    src/lagr/lages2.F
    src/lagr/lagesp.F
    src/lagr/lagfch.F
    src/lagr/lagich.F
    src/lagr/lagitf.F
    src/lagr/lagpoi.F
    src/lagr/lagsta.F
    src/lagr/lagune.F
    src/mati/mtproj.F
    src/mati/mttycl.F
    src/pprt/pplecd.F

* 09/09/2008 - David Monfort <david.monfort@edf.fr>
  Replace deprecated socket structure with standard one.
  modified routines:
    src/base/cs_proxy_comm.c
    src/base/cs_syr3_comm.c

* 09/09/2008 - David Monfort <david.monfort@edf.fr>
  Remove _CS_HAVE_XML dependency in Fortran files.
  modified files:
    bin/Makefile
    ChangeLog
    po/fr.po
    src/base/caltri.F
    src/base/cs_gui.c
    src/base/cs_gui_matisse.c
    src/base/cs_gui_radiative_transfer.c
    src/base/cs_gui_util.c
    src/base/cs_main.c
    src/base/cs_opts.c
    src/base/iniusi.F
    src/base/inivar.F
    src/base/memini.F
    src/base/tridim.F
    src/cplv/cpini1.F
    src/cplv/cpprop.F
    src/cplv/cpvarp.F
    src/mati/mtimpi.F
    src/mati/mtini1.F
    src/pprt/ppclim.F
    src/rayt/raycli.F
    src/rayt/raydom.F
    src/rayt/rayopt.F

* 09/09/2008 - Marc Sakiz <marc.sakiz@edf.fr>
  Minor modifications in runcase output.
  modified script:
    bin/runcase

* 09/09/2008 - Yvan Fournier <yvan.fournier@edf.fr>
  Fix a bug in the new restart files handling.
  modified routine:
    src/base/cs_suite.c

* 09/09/2008 - Marc Sakiz <marc.sakiz@edf.fr>
  Correct wrong test and output string.
  modified routine:
    src/base/cs_tpar1d.c
  modified file:
    po/fr.po

* 22/08/2008 - David Monfort <david.monfort@edf.fr>
  Tagging of version 1.4.b

* 22/08/2008 - Yvan Fournier <yvan.fournier@edf.fr>
  Correction on buffer definition and prototypes if the code
  is compiled without MPI or sockets support. 
  modified routines:
    src/base/cs_halo.c
    src/base/cs_io.c
    src/base/cs_syr3_comm.c

* 22/08/2008 - Yvan Fournier <yvan.fournier@edf.fr>
  Correction on __STDC_VERSION__ detection for stdint include.
  modified routines:
    include/base/cs_base.h
    src/base/cs_proxy_comm.c

* 21/08/2008 - David Monfort <david.monfort@edf.fr>
  Merging from the 1.3 branch (-r 614:622, C output translation)

* 21/08/2008 - Yvan Fournier <yvan.fournier@edf.fr>
  Remove the pipe communication mode for SYRTHES coupling.
  modified routines:
   include/base/cs_syr3_comm.h
   src/base/cs_syr3_comm.c
   src/base/cs_opts.c

* 21/08/2008 - Yvan Fournier <yvan.fournier@edf.fr>
  Change the restart file format to comply with the new common
  format file (with the Preprocessor output).
  modified routines:
    include/base/cs_io.h
    include/base/cs_suite.h
    src/base/cs_ecs_messages.c
    src/base/cs_io.c
    src/base/cs_main.c
    src/base/cs_suite.c
	
* 21/08/2008 - David Monfort <david.monfort@edf.fr>
  Merging from the 1.3 branch (-r 611:614, Fortran output translation)

* 14/08/2008 - David Monfort <david.monfort@edf.fr>
  Merging from the 1.3 branch (-r 604:605, Lagrangian with rotation)

* 13/08/2008 - Yvan Fournier <yvan.fournier@edf.fr>
  Force restart files in binary format, and remove
  unused commons.
  modified documentation:
    doc/USER/latex/saturne1.tex
    doc/USER/latex/saturne2.tex
  modified routines:
    include/base/cs_gui.h
    include/base/cs_suite.h
    include/base/cs_tpar1d.h
    include/base/entsor.h
    src/base/caltri.F
    src/base/cs_gui.c
    src/base/cs_suite.c
    src/base/cs_tpar1d.c
    src/base/ecrava.F
    src/base/impini.F
    src/base/iniini.F
    src/base/iniusi.F
    src/base/lecamp.F
    src/base/lecamx.F
    src/base/modini.F
    src/base/varpos.F
    src/base/verini.F
    src/lagr/laglec.F
    src/lagr/lagout.F
    src/rayt/raybrd.F
    src/rayt/raylec.F
    src/rayt/rayout.F
    users/base/usini1.F

* 13/08/2008 - David Monfort <david.monfort@edf.fr>
  Update the documentation according to the scripts translation.
  modified files:
    doc/USER/latex/saturne1.tex
    doc/USER/latex/a1_autovalid.tex

* 12/08/2008 - Yvan Fournier <yvan.fournier@edf.fr>
  Add a hint in cs_io_initialize for the file API,
  and correct a type error.
  modified routines:
    include/base/cs_io.c
    src/base/cs_ecs_messages.c
    src/base/cs_io.c
    src/base/cs_main.c

* 12/08/2008 - David Monfort <david.monfort@edf.fr>
  Replace all occurences of CS_FALSE and CS_TRUE
  by the standard false and true.

* 12/08/2008 - David Monfort <david.monfort@edf.fr>
  Handle the interior face families when renumbering
  or cutting warped faces.
  modified routines:
    include/base/cs_prototypes.h
    src/base/cs_mesh_warping.c
    src/base/cs_renumber.c
    src/base/numvec.F

* 11/08/2008 - Yvan Fournier <yvan.fournier@edf.fr>
  Temporary fix for rotation periodicity (especially
  with extended neighborhood).
  modified routines:
    include/base/cs_halo.h
    include/base/cs_perio.h
    src/base/cs_gradient.c
    src/base/cs_halo.c
    src/base/cs_mesh.c
    src/base/cs_parall.c
    src/base/cs_perio.c
    src/base/grdcel.F
    src/base/promav.F

* 11/08/2008 - Jerome Bonelle <jerome.bonelle@edf.fr>
  Replace the algorithm used to defined periodic couples
  in order to avoid a possible issue.
  modfied routine:
    src/base/cs_perio.c

* 11/08/2008 - Yvan Fournier <yvan.fournier@edf.fr>
  Modifications related to the Code_Saturne I/O  unification
  between the preprocessor output and the solver restart files.
  Only preprocessor output has been modified at the moment.
  modified routines:
    include/base/cs_io.h
    src/base/cs_ecs_messages.c
    src/base/cs_io.c
    src/base/cs_main.c

* 11/08/2008 - David Monfort <david.monfort@edf.fr>
  Merging from the 1.3 branch (-r 584:585, adding patches directory)

* 11/08/2008 - David Monfort <david.monfort@edf.fr>
  Merging from the 1.3 branch (-r 580:583, several minor corrections)

* 08/08/2008 - David Monfort <david.monfort@edf.fr>
  Merging from the 1.3 branch (-r 577:579, cutting warped faces corrections)

* 08/08/2008 - David Monfort <david.monfort@edf.fr>
  Merging from the 1.3 branch (-r 573:574, updating on extended halos)

* 07/08/2008 - Mehdi Ouraou <mehdi.ouraou@edf.fr>
  Add oxycombustion and fuel classes management.
  added routines:
    include/pprt/ppcpfu.h
    src/fuel/fucyno.F
  deleted routines:
    src/cplv/cpcym1.F
    src/cplv/cppdf5.F
  modified routines:
    include/cplv/cpincl.h
    include/fuel/fuincl.h
    include/pprt/ppincl.h
    src/base/covofi.F
    src/base/iniusi.F
    src/cplv/cpcym2.F
    src/cplv/cpflux.F
    src/cplv/cpini1.F
    src/cplv/cpiniv.F
    src/cplv/cplecd.F
    src/cplv/cplin1.F
    src/cplv/cplini.F
    src/cplv/cplphy.F
    src/cplv/cpltcl.F
    src/cplv/cplym1.F
    src/cplv/cppdf4.F
    src/cplv/cpphy1.F
    src/cplv/cpphyv.F
    src/cplv/cpprop.F
    src/cplv/cpptcl.F
    src/cplv/cpteh1.F
    src/cplv/cptehm.F
    src/cplv/cptssc.F
    src/cplv/cpvarp.F
    src/fuel/fucym1.F
    src/fuel/fuflux.F
    src/fuel/fuini1.F
    src/fuel/fuiniv.F
    src/fuel/fulecd.F
    src/fuel/fuphy1.F
    src/fuel/fuphy2.F
    src/fuel/fuphyv.F
    src/fuel/fuprop.F
    src/fuel/fuptcl.F
    src/fuel/futeh2.F
    src/fuel/futssc.F
    src/fuel/futsvc.F
    src/fuel/futsvi.F
    src/fuel/fuvarp.F
    src/pprt/ppcabs.F
    src/pprt/ppcsca.F
    src/pprt/ppinii.F
    src/pprt/pppdfr.F
    src/pprt/ppphyv.F
    src/pprt/ppray4.F
    src/rayt/raydom.F
    src/rayt/rayopt.F
    users/cplv/uscpcl.F
    users/cplv/uscpi1.F
    users/cplv/uscpiv.F
    users/fuel/usfucl.F
    users/fuel/usfui1.F
    users/fuel/usfuiv.F
    users/pprt/usppmo.F

* 07/08/2008 - David Monfort <david.monfort@edf.fr>
  Removing the compilation logs from versioning.
  removed files:
    aux/comparlist
    aux/listing_*

* 06/08/2008 - Yvan Fournier <yvan.fournier@edf.fr>
  Upgrading to Preprocessor 1.4 and FVM 0.11.0 in order
  to separate the preprocessing from the partioning.
  There is now a single preprocessor_output file, so that
  mesh joining has not to be done again when one asks for
  a different number of processors.
  deleted script:
    bin/lance_install
  added script:
    sbin/install
  modified scripts:
    bin/cs_profile
    bin/macros_*.mk
    bin/runcase
    bin/runcase.help
  modified routines:
    include/base/cs_ecs_messages.h
    include/base/cs_io.h
    include/base/cs_mesh.h
    include/base/parall.h
    src/base/cs_ecs_messages.c
    src/base/cs_io.c
    src/base/cs_main.c
    src/base/cs_mesh.c
    src/base/cs_opts.c
    src/base/impini.F
    src/base/iniini.F
    src/base/majgeo.F

* 06/08/2008 - Yvan Fournier <yvan.fournier@edf.fr>
  Removing heap memory instrumentation.
  modified routines:
    src/base/cs_base.c

* 05/08/2008 - Yvan Fournier <yvan.fournier@edf.fr>
  Scripts translation and improvements.
  deleted scripts:
    bin/cree_sat
    bin/info_cs
    bin/lance
    bin/lance.help
  added scripts:
    bin/cs_create
    bin/cs_info
    bin/ecs
    bin/runcase
    bin/runcase.help
    bin/runcase_mpi_env
    bin/runcase_syrthes
  modified scripts:
    bin/compiler_version
    bin/check_consistency
    bin/check_mesh
    bin/gracehst
    bin/lance_install
    bin/Makefile
    bin/macros_Blue_Gene_L.mk
    bin/macros_Blue_Gene_P.mk
    bin/macros_Darwin.mk
    bin/macros_Linux.mk
    bin/macros_Linux_CCRT.mk
    bin/macros_Linux_Ch.mk
    bin/macros_Linux_IA.mk
    bin/macros_Linux_x86_64.mk
    bin/SaturneGUI
  modified routine:
    src/base/cs_base.c

* 04/08/2008 - David Monfort <david.monfort@edf.fr>
  Merging from the 1.3 branch (-r 531:532, coherency test improvement)

* 04/08/2008 - David Monfort <david.monfort@edf.fr>
  Merging from the 1.3 branch (-r 529:530, scripts translation)

* 04/08/2008 - David Monfort <david.monfort@edf.fr>
  Merging from the 1.3 branch (-r 527:528, lagrangian bug fix)

* 25/07/2008 - David Monfort <david.monfort@edf.fr>
  Merging from the 1.3 branch (-r 523:524, Port to BlueGene/P system)

* 24/07/2008 - David Monfort <david.monfort@edf.fr>
  The reconstruction of the right-hand side has now its
  own precision parameter (EPSRSM) instead of using EPSILO.
  modified routines:
    include/base/optcal.h
    doc/USER/latex/saturne2.tex
    src/rayt/raysol.F
    src/rayt/raypun.F
    src/lagr/lageqp.F
    src/cfbl/cfener.F
    src/cfbl/cfcdts.F
    src/cfbl/cfqdmv.F
    src/cfbl/cfmsvl.F
    src/base/alelap.F
    src/base/resrij.F
    src/base/resolp.F
    src/base/resv2f.F
    src/base/turbkw.F
    src/base/distyp.F
    src/base/covofi.F
    src/base/impini.F
    src/base/reseps.F
    src/base/resssg.F
    src/base/turbke.F
    src/base/iniini.F
    src/base/preduv.F
    src/base/modini.F
    src/base/codits.F
    src/base/calhyd.F

* 24/07/2008 - Yvan Fournier <yvan.fournier@edf.fr>
  Extending support for restart files to extracted part
  of the mesh
  modfified routines:
    include/base/cs_suite.h
    src/base/cs_suite.c
    src/base/cs_tpar1d.c

* 24/07/2008 - David Monfort <david.monfort@edf.fr>
  Removing cs_perio_sync_geo by cs_perio_sync_var
  modified routines:
    include/base/cs_perio.h
    src/base/cs_mesh_quantities.c
    src/base/cs_perio.c

* 24/07/2008 - David Monfort <david.monfort@edf.fr>
  Replacing all occurences of cs_parall_sync with cs_halo_sync
  and removing this former function in cs_parall.
  modified routines:
    include/base/cs_parall.h
    src/base/cs_ext_neighborhood.c
    src/base/cs_benchmark.c
    src/base/cs_gradient.c
    src/base/cs_grid.c
    src/base/cs_matrix.c
    src/base/cs_mesh_coherency.c
    src/base/cs_mesh_quantities.c
    src/base/cs_multigrid.c
    src/base/cs_parall.c

* 23/07/2008 - David Monfort <david.monfort@edf.fr>
  Renaming cs_syr files and routines to cs_syr3 and
  cs_comm files and routines to cs_syr3_comm in order
  to prepare for SYRTHES 4 coupling.
  renamed routines:
    include/base/cs_comm.h
    include/base/cs_syr_coupling.h
    include/base/cs_syr_messages.h
    src/base/cs_comm.c
    src/base/cs_syr_coupling.c
    src/base/cs_syr_messages.c
  modified routines:
    src/base/cs_main.c
    src/base/cs_opts.c

* 08/07/2008 - David Monfort <david.monfort@edf.fr>
  Improving the gracehst wrapper to make it accept more than
  30 probes.
  modified script:
    bin/gracehst

* 30/06/2008 - Yvan Fournier <yvan.fournier@edf.fr>
               David Monfort <david.monfort@edf.fr>
 Fixing some bugs in the multigrid algorithm when periodicity
 is present.
 modified routine:
   src/base/cs_grid.c

* 30/06/2008 - David Monfort <david.monfort@edf.fr>
  Fixing a but in the call to CODITS in the non-dimensional
  distance to the wall calculation.
  modified routine:
    src/base/distyp.F

* 30/06/2008 - David Monfort <david.monfort@edf.fr>
  Adding a test on the number of domains and the lagrangian
  simulation in the launch script, and fixing a bug on the
  radiation results copy.
  modified scripts:
   bin/check_consistency
   bin/lance

* 30/06/2008 - David Monfort <david.monfort@edf.fr>
  Creating a directory structure for How-to documentation.
  added directories:
    doc/HOWTO
    doc/HOWTO/graphics
    doc/HOWTO/input
    doc/HOWTO/latex
  added scripts:
    doc/HOWTO/graphics/Makefile
    doc/HOWTO/latex/Makefile
    doc/HOWTO/Makefile

* 30/06/2008 - Yvan Fournier <yvan.fournier@edf.fr>
  Cosmethic changes in Fortran memory display.
  modified routines:
    src/base/cs_base.c
    src/base/cs_main.c

* 30/06/2008 - Yvan Fournier <yvan.fournier@edf.fr>
  Move a variable declaration to follow C89 standards.
  modified routine:
    src/base/cs_matrix.c

* 30/06/2008 - Yvan Fournier <yvan.fournier@edf.fr>
  Correction on argument types (no impact as they are enum types).
  modified routine:
    src/base/cs_pp_io.c

* 30/06/2008 - Yvan Fournier <yvan.fournier@edf.fr>
  Fixing a bug in error display in cs_gui_get_attribute_value. 
  modified routine:
    src/base/cs_gui_util.c

* 30/06/2008 - David Monfort <david.monfort@edf.fr>
  Fixing a bug with cell selection.
  modified routine:
    src/base/cs_selector.c

* 30/06/2008 - Alexandre Douce <alexandre.douce@edf.fr>
  With periodicity, particule tracking can raise an issue.
  One forces ISENSF to zero in order to avoid it temporarily.
  modified routine:
    src/lagr/ouestu.F

* 30/06/2008 - David Monfort <david.monfort@edf.fr>
               Yvan Fournier <yvan.fournier@edf.fr>
  Correction on strings comparisons in the Makefile,
  possibly source of failure on some systems (SunOS at least)
  modified script:
    bin/lance

* 30/06/2008 - David Monfort <david.monfort@edf.fr>
  Suppression of RUBENS references in the launch script
  modified script:
    bin/lance

* 25/06/2008 - David Monfort <david.monfort@edf.fr>
  Fixing a bug on coordinates synchronization when
  periodicity is present.
  modified routine:
   src/base/cs_perio.c

* 17/06/2008 - David Monfort <david.monfort@edf.fr>
  Removing LD_LIBRARY_PATH related to libxml2 library
  because all machines have it installed locally.
  Adding a comment when the user need to have it
  installed elsewhere.
  modified scripts:
    bin/cs_profile
  modified macros:
    bin/macros_Linux.mk
    bin/macros_Linux_x86_64.mk

* 17/06/2008 - David Monfort <david.monfort@edf.fr>
  Tagging of version 1.4.a

* 17/06/2008 - David Monfort <david.monfort@edf.fr>
  Updating macros on Linux systems (use of local
  libxml2 and ATLAS libraries whane available) and
  upgrading to gcc 4.3.1
  modified macros:
    bin/macros_Linux_CCRT.mk
    bin/macros_Linux_Ch.mk
    bin/macros_Linux_IA64.mk
    bin/macros_Linux.mk
    bin/macros_Linux_x86_64.mk

* 17/06/2008 - Yvan Fournier <yvan.fournier@edf.fr>
  Simplification of some scripts
  modified scripts:
    bin/cs_profile
    bin/SaturneGUI

* 17/06/2008 - David Monfort <david.monfort@edf.fr>
  Add a warning when the number of preprocessor_output files
  read by the kernel does not correspond to the number of MPI
  processes.
  modified routine:
    src/base/cs_ecs_messages.c

* 17/06/2008 - David Monfort <david.monfort@edf.fr>
  Merging the correction on wrong arguments in RAYDAK
  from Version1_3 branch.
  modified routine:
    src/rayt/raydak.F

* 10/06/2008 - David Monfort <david.monfort@edf.fr>
  Bug correction on an usued static array in FORTRAN
  modified routines:
    src/fuel/futsvi.F

* 10/06/2008 - David Monfort <david.monfort@edf.fr>
  Removing unused arrays related to multigrid algorithm:
  IFACLG, IRESPR, DAG and XAG.
  modified routines:
    src/rayt/raydom.F
    src/rayt/raysol.F
    src/rayt/raypun.F
    src/rayt/memra2.F
    src/lagr/lageqp.F
    src/lagr/lagpoi.F
    src/cfbl/cfener.F
    src/cfbl/memcfm.F
    src/cfbl/cfcdts.F
    src/cfbl/cfqdmv.F
    src/cfbl/cfmsvl.F
    src/base/memv2f.F
    src/base/alelap.F
    src/base/resrij.F
    src/base/memdis.F
    src/base/memale.F
    src/base/resolp.F
    src/base/resv2f.F
    src/base/turbkw.F
    src/base/turrij.F
    src/base/navsto.F
    src/base/distyp.F
    src/base/memkep.F
    src/base/memkom.F
    src/base/covofi.F
    src/base/memdyp.F
    src/base/reseps.F
    src/base/distpr.F
    src/base/resssg.F
    src/base/turbke.F
    src/base/scalai.F
    src/base/memsca.F
    src/base/preduv.F
    src/base/memnav.F
    src/base/memrij.F
    src/base/codits.F
    src/base/calhyd.F
    src/base/invers.F
    src/base/tridim.F

* 30/05/2008 - Yvan Fournier <yvan.fournier@edf.fr>
  Modification of Code_Saturne compilation with the
  ElectricFence library.
  modified routines:
    bin/macros_Linux_x86_64.mk
    bin/lance_install
    bin/Makefile

* 30/05/2008 - Namane Mechitoua <namane.mechitoua@edf.fr>
               Sophie Bosse <sophie.bosse@edf.fr>
               Yvan Fournier <yvan.fournier@edf.fr>
  Modification of the algebric multigrid algorithm
  adapted to the resolution of pressure equation.
  The algorithm works in serial and parallel runs.
  modified routines:
    users/base/usini1.F
    include/base/cs_prototypes.h
    include/base/optcal.h
    include/base/cs_sles.h
    doc/USER/latex/saturne2.tex
    src/cfbl/cfcdts.F
    src/base/verini.F
    src/base/resolp.F
    src/base/impini.F
    src/base/cs_main.c
    src/base/cs_sles.c
    src/base/calgeo.F
    src/base/iniini.F
    src/base/modini.F
    src/base/codits.F
    src/base/invers.F
  added routines:
    include/base/cs_grid.h
    include/base/cs_multigrid.h
    src/base/autmgr.F
    src/base/crstgr.F
    src/base/cs_grid.c
    src/base/cs_multigrid.c
    users/base/ustmgr.F
  deleted routines:
    include/base/mltgrd.h
    src/base/calgrg.F
    src/base/cgstab.F
    src/base/clmlga.F
    src/base/cycmgr.F
    src/base/gradco.F
    src/base/jacobi.F
    src/base/memgrg.F
    src/base/mempgr.F
    src/base/premgr.F
    src/base/prolon.F
    src/base/resmgr.F

* 29/05/2008 - Yvan Fournier <yvan.fournier@edf.fr>
  Translating memory checking from FORTRAN to C.
  modified routines:
    include/base/cs_base.h
    include/base/cs_parall.h
    src/base/cs_base.c
    src/base/cs_parall.c
    src/base/cs_main.c
    src/base/caltri.F
    src/base/memini.F
  deleted routines:
    include/base/memoir.h
    src/base/rasize.F
    src/base/iasize.F

* 29/05/2008 - David Monfort <david.monfort@edf.fr> 
  The size of the work arrays IA and RA is now defined
  with a FORTRAN user file and no more via the scripts,
  making them independent of the number of sub-domains
  in case of a parallel run.
  modified routines:
    users/base/usini1.F
    include/base/cs_opts.h
    include/base/dimens.h
    include/base/memoir.h
    doc/USER/latex/saturne1.tex
    src/base/initi1.F
    src/base/impini.F
    src/base/cs_main.c
    src/base/caltri.F
    src/base/iniusi.F
    src/base/cs_gui.c
    src/base/iniini.F
    src/base/cs_opts.c
    src/base/memini.F
    bin/lance
    bin/lance.help
  deleted routines:
    users/base/ustbus.F

* 29/05/2008 - Yvan Fournier <yvan.fournier@edf.fr>
  Adding communications with a proxy, in order to prepare
  the Code_Saturne/Code_Aster coupling via Salomé/YACS.
  modified routines:
    include/base/cs_opts.h
    include/base/cs_base.h
    src/base/cs_base.c
    src/base/cs_main.c
    src/base/cs_opts.c
  added routines:
    include/base/cs_calcium.h
    include/base/cs_proxy_comm.h
    src/base/cs_proxy_comm.c
    src/base/cs_calcium.c

* 29/05/2008 - Yvan Fournier <yvan.fournier@edf.fr>
  Modification of the behaviour of renumbering.
  modified routines:
    include/base/cs_post.h
    include/base/cs_mesh.h
    src/base/numvec.F
    src/base/cs_main.c
    src/base/cs_post.c
    src/base/cs_suite.c
    src/base/cs_mesh.c
    src/base/cs_mesh_warping.c
    src/base/cs_mesh_connect.c

* 28/05/2008 - David Monfort <david.monfort@edf.fr> 
  Removing the parts of the compilation scripts concerning
  the Purify and Foresys tools, as they are no more used.
  modified routines:
    bin/lance_install
    bin/lance.help
    bin/Makefile
    doc/USERS/latex/saturne1.tex

* 27/05/2008 - Yvan Fournier <yvan.fournier@edf.fr>
  Simplifying the command line option for a parallel run.
  modified routines:
    bin/lance_install
    src/base/cs_opts.c

* 27/05/2008 - Yvan Fournier <yvan.fournier@edf.fr>
  Adding support for a shared library on Linux systems.
  modified routines:
    bin/lance_install
    bin/Makefile
    bin/macros_Linux.mk
    bin/macros_Linux_x86_64.mk

* 27/05/2008 - Yvan Fournier <yvan.fournier@edf.fr>
  Adding a sub-script to check FORTRAN user files consistency.
  Adding a script to clean the directories.
  Updating the compiler for EDF Calibre 5 workstations.
  modified routines:
    bin/lance
    bin/lance_install
    bin/macros_Linux_x86_64.mk
  added routines:
    bin/check_consistency
    aux/clean

* 27/05/2008 - Yvan Fournier <yvan.fournier@edf.fr>
  Adding a warning in case of rotation periodicity
  modified routines:
    src/base/cs_matrix.c

* 27/05/2008 - Yvan Fournier <yvan.fournier@edf.fr>
  Adding two routines to save and restore the halos
  with a rotation periodicity (before doing a matrix
  vector product under certain circumstances)
  modified routines:
    include/base/cs_perio.h
    src/base/promav.F
    src/base/cs_perio.c

* 27/05/2008 - Yvan Fournier <yvan.fournier@edf.fr>
  Updating the halo structure in order to prepare
  for a parallel and periodic multigrid algorithm.
  modified routines:
    include/base/cs_matrix.h
    include/base/cs_halo.h
    include/base/cs_mesh.h
    include/base/cs_mesh_quantities.h
    include/base/cs_perio.h
    src/lagr/cs_lagr_perio.c
    src/base/cs_ext_neighborhood.c
    src/base/cs_benchmark.c
    src/base/cs_mesh_coherency.c
    src/base/cs_mesh_halo.c
    src/base/cs_parall.c
    src/base/cs_matrix.c
    src/base/cs_gradient.c
    src/base/cs_mesh_quantities.c
    src/base/cs_perio.c
    src/base/cs_sles.c
    src/base/cs_halo.c
    src/base/cs_mesh.c
    src/base/cs_mesh_warping.c

* 27/05/2008 - Yvan Fournier <yvan.fournier@edf.fr>
  Removing native matrix-vector product from C call.
  Changing CSR matrix format behaviour.
  modifified routine:
    src/base/cs_matrix.c

* 26/05/2008 - Yvan Fournier <yvan.fournier@edf.fr>
  Adding a routine to compute the minimum of an integer
  over the domains in case of parallelism
  modified routines:
    include/base/cs_parall.h
    src/base/cs_parall.c

[...]
    cs_post.h
    cs_renumber.c
    cs_renumber.h
    cs_sles.c
    cs_suite.c
    cs_syr_coupling.c
    cs_ventil.F
    cs_ventil.h
    grdcel.F
    impini.F
    iniini.F
    initi1.F
    lagcel.F
    lagnwc.F
  modified and renamed routines:
    cs_maillage.c  cs_mesh.c
    cs_maillage.h  cs_mesh.h
    cs_maillage_connect.c  cs_mesh_connect.c
    cs_maillage_connect.h  cs_mesh_connect.h
    cs_maillage_grd.c  cs_mesh_quantities.c
    cs_maillage_grd.h  cs_mesh_quantities.h
    cs_maillage_select.c  cs_mesh_select.c
    cs_maillage_select.h  cs_mesh_select.h
    cs_maillage_solcom.c  cs_mesh_solcom.c
    cs_maillage_solcom.h  cs_mesh_solcom.h
    cs_messages_ecs.c   cs_ecs_messages.c
    cs_messages_ecs.h  cs_ecs_messages.h
    cs_parallel.c  cs_parall.c
    cs_parallel.h  cs_parall.h
    cs_voiset.c  cs_ext_neighborhood.c
    cs_voiset.h  cs_ext_neighborhood.h
  removed routines:
    cs_msg.c
    cs_msg.h
    filtre.F
    limgrd.F

===========================================================================

* 06/07/2007 - Marc Sakiz <marc.sakiz@edf.fr>
  Tagging of version 1.3.k


* 04/07/2007 - Bertrand Carissimo <bertrand.carissimo@edf.fr>
  Implementation of rough wall boundary conditions
  added routines:
    clptrg.F
  modified routine:
    cfxtcl.F
    clptur.F
    clsyvt.F
    condli.F
    cou1di.F
    coupbi.F
    cpltcl.F
    cpptcl.F
    d3ptcl.F
    distpr.F
    distyp.F
    ebutcl.F
    fuptcl.F
    lageqp.F
    lwctcl.F
    paramx.h
    ppclim.F
    ppprcl.F
    ppray4.F
    pptycl.F
    precli.F
    raycli.F
    raypun.F
    rijech.F
    tridim.F
    typecl.F
    usalcl.F
    usclim.F
    uscpcl.F
    uscplc.F
    usd3pc.F
    usebuc.F
    uselcl.F
    usetcl.F
    usfucl.F
    uslwcc.F
    usray2.F
    usray4.F
    usray5.F
    usruet.F
    vericl.F
    vor2cl.F

===========================================================================

* 03/07/2007 - Marc Sakiz <marc.sakiz@edf.fr>
  Tagging of version 1.3.j

* 02/07/2007 - Mehdi Ouraou <mehdi.ouraou@edf.fr>
  Implementation of fuel combustion, coal humidity and
  reorganisation of pulverised coal combustion.
  added data files:
    dp_FUE
  added routines:
    cpcym2.F
    fucym1.F
    fuflux.F
    fuincl.h
    fuini1.F
    fuiniv.F
    fulecd.F
    fupdfr.F
    fuphy1.F
    fuphy2.F
    fuphyv.F
    fuprop.F
    fuptcl.F
    futeh1.F
    futeh2.F
    futhp1.F
    futhp2.F
    futssc.F
    futsvc.F
    futsvi.F
    fuvarp.F
    fuveri.F
    memfu1.F
    usfucl.F
    usfui1.F
    usfuiv.F
  modified data files:
    dp_FCP
    JAnAF
  modified routines:
    copdfr.F -> renamed pppdfr.F
    covofi.F
    cpflux.F
    cpincl.h
    cpini1.F
    cpiniv.F
    cplecd.F
    cpphy1.F
    cpphy2.F
    cpphyv.F
    cpprop.F
    cpptcl.F
    cprays.F
    cpteh2.F
    cpthp2.F
    cptssc.F
    cpvarp.F
    cpveri.F
    cs_gui.c
    cs_gui.h
    d3phst.F
    d3pint.F
    d3pphy.F
    d3pver.F
    ebuver.F
    ecrava.F
    impini.F
    iniusi.F
    lagcar.F
    lagent.F
    lages1.F
    lages2.F
    laggra.F
    lagich.F
    lagitf.F
    laglec.F
    lagopt.F
    lagout.F
    lecamx.F
    lwcver.F
    ppcabs.F
    ppclim.F
    ppcsca.F
    ppincl.h
    ppinii.F
    ppiniv.F
    pplecd.F
    ppphyv.F
    ppprcl.F
    ppprop.F
    ppray4.F
    ppthch.h
    pptssc.F
    pptycl.F
    ppvarp.F
    raydom.F
    rayopt.F
    scalai.F
    uscpi1.F
    uscpiv.F
    usppmo.F
  modified scripts:
    lance
    lance_install
    Makefile



* 02/07/2007 - Marc Sakiz <marc.sakiz@edf.fr>
  Suppression of useless vide.h files

* 02/07/2007 - Yvan Fournier <yvan.fournier@edf.fr>
  Update of macros_*.mk for Linux, Linux_IA64 and Linux_CCRT, definition of
  C-Blas as default, suppression of some unused arguments in gradient
  calculation to allow earlier call.
  modified scripts:
    macros_Linux.mk
    macros_Linux_CCRT.mk
    macros_Linux_IA64.mk
  modified routines:
    cs_blas.c
    cs_blas.h
    cs_voiset.c
    cs_voiset.h
    gradmc.F
    gradrc.F
    grdcel.F
    tremai.c

===========================================================================

* 02/07/2007 - Marc Sakiz <marc.sakiz@edf.fr>
  Tagging of version 1.3.i

* 29/06/2007 - Carole Vit <carole.vit@edf.fr>
               Sofiane Benhamadouche <sofiane.benhaamdouche@edf.fr>
               Marc Sakiz <marc.sakiz@edf.fr>
  Implementation of steady-state algorithm
  modified routines:
    alelap.F
    bilsc2.F
    codits.F
    covofi.F
    cs_opts.c
    distpr.F
    distyp.F
    dttvar.F
    impini.F
    iniini.F
    iniusi.F
    matrdt.F
    modini.F
    navsto.F
    optcal.h
    preduv.F
    reseps.F
    resolp.F
    resrij.F
    resssg.F
    resv2f.F
    tridim.F
    turbke.F
    turbkw.F
    verini.F
    cfmsvl.F
    lageqp.F
    raypun.F
    raysol.F


===========================================================================

* 25/06/2007 - Marc Sakiz <marc.sakiz@edf.fr>
  Tagging of version 1.3.h

* 25/06/2007 - Marc Sakiz <marc.sakiz@edf.fr>
  Correction of erroneous verification test on
  time averages in varpos.F

* 22/06/2007 - Marc Sakiz <marc.sakiz@edf.fr>
  Compatibility of ALE method with 2nd order time
  scheme and velocity/pressure sub-iterations (but
  it does not imply that the mesh movement and
  inner structure coupling is 2nd order ...)
  + full explicit treatment of the mass flux if
  ISTMPF.EQ.0 in case of velocity/pressure sub-iterations
  modified routines:
    schtmp.F
    strdep.F
    strpre.F
    tridim.F
    verini.F

* 11/06/2007 - Yvan Fournier <yvan.fournier@edf.fr>
  Update of macros*.mk, minor modifications to benchmarking
  mode and BLAS porting, extension solver reorganisation
  modified scripts:
    macros_*.mk
  modified routines:
    cs_benchmark.c
    cs_matrix.c
    cs_sles.c
    invers.F

* 11/06/2007 - Yvan Fournier <yvan.fournier@edf.fr>
  Merge of base_1 and base_2 directories as base in src
  and corresponding modification of Makefile

* 06/06/2007 - David Monfort <david.monfort@edf.fr>
  Correction of Makefile to avoid problems with *.F* files
  that are not *.F nor *.F95

* 27/04/2007 - Marc Sakiz <marc.sakiz@edf.fr>
  Correction of missing ITUSER/RTUSER/IDEVEL/RDEVEL arguments
  in certain routines
  modified routines:
    caltri.F
    cregeo.F
    lagcar.F
    lageli.F
    lagent.F
    lages1.F
    lages2.F
    lagesp.F
    lagfch.F
    lagipn.F
    lagnew.F
    lagnpr.F
    lagnwc.F
    lagrus.F
    lagsta.F
    lagune.F
    usdpst.F
    usladp.F
    uslafe.F
    uslain.F
    uslatc.F
    uslatp.F

* 25/04/2007 - David Monfort <david.monfort@edf.fr>
  Suppression of useless test on IISUIT before the second
  call to ECRAVA in caltri.F

* 25/04/2007 - Yvan Fournier <yvan.fournier@edf.fr>
  Correction of specific cases where "inline" commands
  are banned
  modified routines:
  cs_base.h
  cs_lagrang.c
  cs_matrix.c
  cs_sles.c

===========================================================================

* 18/04/2007 - Marc Sakiz <marc.sakiz@edf.fr>
  Tagging of version 1.3.g


* 18/04/2007 - Jérôme Bonelle <jerome.bonelle@edf.fr>
  Porting on Linux_Argent architecture (CCRT Bull Novascale
  Itanium cluster), including BLAS compatibility
  added script:
    marcos_Linux_Argent.mk
  modified scripts:
    cs_profile
    lance
    rang_mpi.sh
  modified routines:
    cs_blas.c
    cs_blas.h

	
* 10/04/2007 - Yvan Fournier <yvan.fournier@edf.fr>
  Reorganisation of the linear solvers, "matrix" structure,
  adaptation to BLAS libraires, management of memory alignment
  for BlueGene optimisation, benchmark mode for testing linear
  solvers, change in the position of the renumbering of cells
  for vector machines optimisation, adaptation to fvm-0.7.0, 
  optimisation of parallel/periodic synchronisations to avoid
  redudancies, automatic supression of X or 1 in the post-processing
  name of a vector variable with components labelled (...X,...Y,...Z)
  or (...1, ...2, ...3) 
  modified scripts:
    cs_profile
    lance_install
    macros_Blue_Gene_L.mk
    macros_HP-UX.mk
    macros_IRIX64.mk
    macros_Linux.mk
    macros_Linux_CCRT.mk
    macros_Linux_Ch.mk
    macros_OSF1.mk
    macros_SunOS.mk
    Makefile
    rang_mpi.sh
  added routines:
    cs_benchmark.c
    cs_benchmark.h
    cs_blas.c
    cs_blas.h
    cs_matrix.c
    cs_matrix.h
    cs_prototypes.h
    cs_renumber.c
    cs_renumber.h
    cs_sles.c
    cs_sles.h
  deleted routines:
    memnvc.F
  modified routines:
    cfcdts.F
    cgstab.F
    codits.F
    cregeo.F
    cycmgr.F
    cs_base.h
    cs_couplage.c
    cs_maillage_connect.c
    cs_maillage_solcom.c
    cs_main.c
    cs_opts.c
    cs_opts.h
    cs_parallel.c
    cs_perio.c
    cs_perio.h
    cs_post_util.F
    dvvpst.F
    gradco.F
    iniini.F
    invers.F
    jacobi.F
    numvec.F
    prcpol.F
    promav.F
    proxav.F

* 05/04/2007 - Fabien Huvelin <fabien.huvelin@edf.fr>
  Chronological records of structure displacement, velocity
  acceleration and forces + improved force and displacement
  prediction for explicit internal structure coupling
  modified routines:
    albase.h
    alstru.h
    caltri.F
    entsor.h
    iniini.F
    modini.F
    paramx.h
    strdep.F
    strini.F
    strpre.F
    tridim.F
    usalin.F
    usstru.F
    verini.F
  added routine:
    strhis.F

* 26/03/2007 - Fabien Huvelin <fabien.huvelin@edf.fr>
  Displacement based Newmark scheme for internal
  structure coupling instead of acceleration based scheme
  modified routines:
    alstru.h
    iniini.F
    modini.F
    newmrk.F
    strdep.F
    strini.F
    verini.F

* 26/03/2007 - Marc Sakiz <marc.sakiz@edf.fr>
  Implementation of an orthotropic mesh viscosity
  for the ALE method
  modified routines:
    albase.h
    alelap.F
    condli.F
    ecrava.F
    iniini.F
    iniva0.F
    lecamx.F
    modini.F
    numvar.h
    phyvar.F
    usalin.F
    usvima.F
    varpos.F


* 01/03/2007 - Marc Sakiz <marc.sakiz@edf.fr>
  Change in comments, initialisation and tests
  on ITRSVR
  modified routines:
    entsor.h
    iniini.F
    modini.F
    verini.F

===========================================================================

* 01/03/2007 - Marc Sakiz <marc.sakiz@edf.fr>
  Tagging of version 1.3.f

* 01/03/2007 - Marc Sakiz <marc.sakiz@edf.fr>
  Bug correction in initialisation of IPRTOT pointer
  in varpos.F
  modified routines:
    iniini.F
    varpos.F

* 14/02/2007 - Marc Sakiz <marc.sakiz@edf.fr>
  Modification of lance to limit its size (problem
  with LSF with too large scripts)
  added script:
    lance.help
  modified script:
    cree_sat
    lance

* 13/02/2007 - Yvan Fournier - <yvan.fournier@edf.fr>
  Modification of Makefile for BLAS on Blue Gene architecture

* 13/02/2007 - Jerome Bonelle <jerome.bonelle@edf.fr>
  Correction for Syrthes coupling with 2D solid meshes
  modified routines:
    cs_mesh_quality.c
    cs_post.c
    cs_syr_coupling.c

* 10/02/2007 - Marc Sakiz <marc.sakiz@edf.fr>
  Change in the architecture of the libraries
  (creation of the "arch" directory)
  modified scripts:
  lance_install
  Makefile

* 10/02/2007 - Marc Sakiz <marc.sakiz@edf.fr>
  Change of an ambiguous notation in the routines
  for the specific physics source terms.
  modified routines:
    cpltss.F
    cpltsv.F
    cptssc.F
    cptsvc.F
    cptsvi.F
    ebutss.F
    eltssc.F
    lwctss.F
    pptssc.F
	
* 09/02/2007 - Mehdi Ouraou <mehdi.ouraou@edf.fr>
             - Alexandre Douce <alexandre.douce@edf.fr>
  Modifications in the Lagrangian module: chemical forces
  (van der Waals et al.), particule slugging and advanced
  particle/wall interaction, compliance with periodic
  boundaries, advanced statistics control (averages and
  root mean squares) and post-processing.
  added routines:
    cs_lagr_perio.c
    cs_lagr_perio.h
    lagaff.F
    lagfch.F
    laghis.F
    lagnpr.F
    usladp.F
    uslafe.F
    uslapr.F
  deleted routine:
    lagraf.F
  modified routines:
    caltri.F
    cs_post.c
    cs_post.h
    dvvpst.F
    enslag.F
    entsor.h
    impini.F
    iniini.F
    lagcar.F
    lagcel.F
    lagdeb.F
    lageli.F
    lagent.F
    lages1.F
    lages2.F
    lagesp.F
    lagini.F
    laglec.F
    laglis.F
    lagnwc.F
    lagopt.F
    lagout.F
    lagpar.h
    lagran.h
    lagrus.F
    lagsta.F
    lagune.F
    memla1.F
    memla2.F
    memtri.F
    ouestu.F
    uslabo.F
    uslaen.F
    uslag1.F
    uslag2.F
    uslaru.F
    uslast.F
    verini.F

* 08/02/2007 - Mehdi Ouraou <mehdi.ouraou@edf.fr>
  Changes in boundary conditions for compressible module
  (Code_Saturne bug tracker ticket #57)
  modified routines:
    cfxtcl.F
    uscfth.F

* 31/01/2007 - Marc Sakiz <marc.sakiz@edf.fr>
  Deletion of the STUB ifdef and associated compilation
  options
  modified routines:
    cfdttv.F
    cfener.F
    cfini1.F
    cfiniv.F
    cfmsvl.F
    cfphyv.F
    cfprop.F
    cfqdmv.F
    cfvarp.F
    cfxtcl.F
    coini1.F
    colecd.F
    coprop.F
    cothht.F
    covarp.F
    cpflux.F
    cpini1.F
    cpiniv.F
    cplecd.F
    cplin1.F
    cplini.F
    cplphy.F
    cplpro.F
    cpltcl.F
    cpltss.F
    cplvar.F
    cpphyv.F
    cpprop.F
    cpptcl.F
    cprays.F
    cpthp1.F
    cpthp2.F
    cptssc.F
    cpvarp.F
    d3pini.F
    d3pphy.F
    d3ptcl.F
    ebuini.F
    ebuphy.F
    ebutcl.F
    ebutss.F
    elflux.F
    elini1.F
    eliniv.F
    ellecd.F
    elphyv.F
    elprop.F
    eltssc.F
    elvarp.F
    lagini.F
    laglec.F
    laglis.F
    lagopt.F
    lagout.F
    lagune.F
    lwcini.F
    lwcphy.F
    lwctcl.F
    lwctss.F
    memcfm.F
    memla1.F
    memla2.F
    memmat.F
    memra1.F
    memra2.F
    memra3.F
    mtimpi.F
    mtini1.F
    mtkpdc.F
    mtphyv.F
    mtproj.F
    mttsns.F
    mttssc.F
    mttycl.F
    raycli.F
    raydak.F
    raydom.F
    rayens.F
    raylec.F
    rayopt.F
    rayout.F
    raysca.F
    uscfcl.F
    uscfth.F
    uscpcl.F
    uscplc.F
    usd3pc.F
    usebuc.F
    uselcl.F
    uselen.F
    uselrc.F
    usetcl.F
    uslaen.F
    uslwcc.F
  modified scripts:
    lance
    lance_install
    macros_*.mk
    Makefile

* 29/01/2007 - Carole Vit <carole.vit@edf.fr>
  Post-processing of the Courant and Fourier numbers
  (listing, chronological records, 3D post-processing)

* 09/01/2007 - Marc Sakiz <marc.sakiz@edf.fr>
  Correction of bug in argument passing of codits in raysol.F and raypun.F
  (bug introduced in version 1.3.c with the change from IDIRCL to NDIRCL).
  
* 08/01/2007 - Marc Sakiz <marc.sakiz@edf.fr>
  Writing of Cmu constant in listing with k-omega SST model (used
  for epsilon/omega conversions)

* 08/01/2007 - Marc Sakiz <marc.sakiz@edf.fr>
  Minor changes in comments of many files

* 04/01/2007 - Marc Sakiz <marc.sakiz@edf.fr>
  Modification of the test on ICDPAR and parallelism/periodicity
  in verini.F

* 03/01/2007 - Marc Sakiz <marc.sakiz@edf.fr>
  Suppression of useless ISTAT and NDIRCP in matrdt
  modified routines:
    distyp.F
    dttvar.F
    matrdt.F

* 21/12/2006 - Yvan Fournier <yvan.fournier@edf.fr>
  Link to BFT 1.0.3
  modified scripts:
    macros_*.mk

* 21/12/2006 - Alexandre Douce <alexandre.douce@edf.fr>
  Modifications for pulverised coal and radiative transfer
  in GUI
  added routine:
    usray5.F
  modified routines:
    cpini1.F
    cpveri.F
    cs_gui.c
    cs_gui.h
    cs_gui_radiative_transfer.c
    cs_gui_radiative_transfer.h
    cs_gui_util.c
    cs_gui_util.h
    inivar.F
    ppcabs.F
    ppclim.F
    raycli.F
    raydom.F
    rayopt.F
    tridim.F
    uscpi1.F
    usray2.F
    usray3.F

* 21/12/2006 - Flavien Billard <flavien.billard@gmail.com>
  Modification in source term for the fb equation
  in resv2f.F

* 21/12/2006 - Marc Sakiz <marc.sakiz@edf.fr>
  Correction of memory management in strini.F

* 21/12/2006 - Marc Sakiz <marc.sakiz@edf.fr>
  Deletion of file v2nutp.F (unused routine, remnance
  of tests on v2f model with IKEKOU=1)

===========================================================================

* 18/12/2006 - Marc Sakiz <marc.sakiz@edf.fr>
  Tagging of version 1.3.e

* 18/12/2006 - Marc Sakiz <marc.sakiz@edf.fr>
  Adding of GPL licence tag on all files.

* 15/12/2006 - Yvan Fournier <yvan.fournier@edf.fr>
  Minor modification in user manual

* 15/12/2006 - Yvan Fournier <yvan.fournier@edf.fr>
  Finer CPU time analysis for post-processing in
  cs_post.c

* 15/12/2006 - Yvan Fournier <yvan.fournier@edf.fr>
  Suppression of unused arguments in limgrd.F
  modified routines:
    cs_voiset.c
    cs_voiset.h
    grdcel.F
    limgrd.F
	
* 15/12/2006 - Yvan Fournier <yvan.fournier@edf.fr>
  Corrected "assert" instructions + correction of
  cs_syr_coupling.c (adaptation to fvm-0.6.2)
  modified routines:
    cs_maillage_connect.c
    cs_mesh_quality.c
    cs_syr_coupling.c
	
	
* 15/12/2006 - Yvan Fournier <yvan.fournier@edf.fr>
  Preparation for BLAS libraries and other optimisations
  for Blue Gene
  modified routines:
    cs_base.c
    cs_parallel.c
    gradco.F
    prodsc.F
    promav.F
    tremai.c
  modified script:
    Makefile
	
* 07/12/2006 - Carole Vit <carole.vit@edf.fr>
  Correction of debugging message format in iniusi.F

* 07/12/2006 - Marc Sakiz <marc.sakiz@edf.fr>
  Deletion of unnecessary calls to include memoir.h
  modified routines:
    iniini.F
    iniusi.F
    modini.F
    usini1.F
    verini.F

* 06/12/2006 - Marc Sakiz <marc.sakiz@edf.fr>
  Bug correction in dttvar.F (at the first time step, NDIRCL is initialised
  to 0 which results in a slight shift of the diagonal of the matrix
  used to calculate the time step when IDTVAR>0)

* 01/12/2006 - Marc Sakiz <marc.sakiz@edf.fr>
  Bug correction in the ALE method (calculation of the flux with
  imposed displacement of inner vertices + boundary conditions of
  moving symmetry faces
  modified routines:
    navsto.F
    tridim.F
    typecl.F

* 30/11/2006 - David Monfort <david.monfort@edf.fr>
  Bug correction in the arguments of codits in distyp.F

* 30/11/2006 - David Monfort <david.monfort@edf.fr>
  Minor corrections of the examples in usvpst.F and comments
  in usstru.F

* 29/11/2006 - Frederic Archambeau <frederic.archambeau@edf.fr>
  Correction of missing definition of IPCROM and IPBROM
  in the last IPHAS loop of navsto.F
  (Code_Saturne bug tracker ticket #59)

	
* ../11/2006 - David Monfort <david.monfort@edf.fr>
  Correction of verifmail due to new Envelope options
  (Code_Saturne bug tracker ticket #53)

* ../11/2006 - Marc Sakiz <marc.sakiz@edf.fr>
  Change of NSPHMX to 1 in paramx.h (since IPHAS is forced to 1)

* ../11/2006 - Marc Sakiz <marc.sakiz@edf.fr>
  Correction of the display and the test on IPSTFO
  modified routines:
    impini.F
    verini.F
	
* ../11/2006 - Marc Sakiz <marc.sakiz@edf.fr>
  Correction in modini.F to have default post-processing of the mesh
  viscosity with ALE

* ../11/2006 - Jerome Bonelle <jerome.bonelle@edf.fr>
  Correction of a bug in cs_base.c (dimension of cs_glob_base_chaine)

* ../11/2006 - Marc Sakiz <marc.sakiz@edf.fr>
  Correction of a bug in dttvar.F in case IPTLRO=1 (introduced un 1.3.d)
  modified routines:
    dttvar.F
    memdtv.F
    tridim.F
	
* ../11/2006 - Yvan Fournier <yvan.fournier@edf.fr>
  Correction of a bug in cs_suite.c (introduced in version 1.3.d)
	
* ../11/2006 - David Monfort <david.monfort@edf.fr>
  Correction of a "real.EQ.0.D0" test in visdyn.F and in ussmag.F
  (Code_Saturne bug tracker ticket #56)
	
* ../11/2006 - David Monfort <david.monfort@edf.fr>
  Modification of gracehst to write the temporary file in /tmp
  (Code_Saturne bug tracker ticket #55)

* ../11/2006 - Marc Sakiz <marc.sakiz@edf.fr
  Correction in navsto.F (RETURN added for IPRCO=0)
	
* ../11/2006 - Emmanuel Lemoine <emmanuel.lemoine@incka.fr>
  Corrections in strdep.F (PARSOM forgotten in the evaluation of FORSTR)
  + no need to multiply by SURFBN in FORSTR

* 21/11/2006 - Marc Sakiz < marc.sakiz@edf.fr>
  Import of version ncs-1.3.d
  For the history of earlier modifications, refer to the Synchronisation
  file of version 1.3.d.

===========================================================================
===========================================================================
