2007-11-28 12:53  Code_Saturne development team <saturne-support@edf.fr>

	* [r138]
	  doc/TUTORIAL/TEST_CASES/STRATIFIED_JUNCTION/CASE5/DATA/case5.xml,
	  doc/TUTORIAL/TEST_CASES/STRATIFIED_JUNCTION/CASE5/FORT/usdpst.F,
	  doc/TUTORIAL/TEST_CASES/STRATIFIED_JUNCTION/CASE5/FORT/usmpst.F,
	  doc/TUTORIAL/TEST_CASES/STRATIFIED_JUNCTION/CASE5/FORT/usphyv.F,
	  doc/TUTORIAL/TEST_CASES/STRATIFIED_JUNCTION/CASE5/FORT/usvpst.F,
	  doc/TUTORIAL/TEST_CASES/STRATIFIED_JUNCTION/CASE5/SCRIPTS/lance:
	  Adding of solution files for tutorial test cases

2007-11-28 12:53  Code_Saturne development team <saturne-support@edf.fr>

	* [r137] doc/TUTORIAL/TEST_CASES/STRATIFIED_JUNCTION/CASE5/DATA,
	  doc/TUTORIAL/TEST_CASES/STRATIFIED_JUNCTION/CASE5/FORT,
	  doc/TUTORIAL/TEST_CASES/STRATIFIED_JUNCTION/CASE5/SCRIPTS: Adding
	  of solution files for tutorial test cases

2007-11-28 12:53  Code_Saturne development team <saturne-support@edf.fr>

	* [r136] doc/TUTORIAL/TEST_CASES/STRATIFIED_JUNCTION/CASE5: Adding
	  of solution files for tutorial test cases

2007-11-28 12:52  Code_Saturne development team <saturne-support@edf.fr>

	* [r135]
	  doc/TUTORIAL/TEST_CASES/SIMPLE_JUNCTION/CASE1/DATA/case1.xml,
	  doc/TUTORIAL/TEST_CASES/SIMPLE_JUNCTION/CASE1/SCRIPTS/lance:
	  Adding of solution files for tutorial test cases

2007-11-28 12:52  Code_Saturne development team <saturne-support@edf.fr>

	* [r134] doc/TUTORIAL/TEST_CASES/SIMPLE_JUNCTION/CASE1/DATA,
	  doc/TUTORIAL/TEST_CASES/SIMPLE_JUNCTION/CASE1/FORT,
	  doc/TUTORIAL/TEST_CASES/SIMPLE_JUNCTION/CASE1/SCRIPTS: Adding of
	  solution files for tutorial test cases

2007-11-28 12:52  Code_Saturne development team <saturne-support@edf.fr>

	* [r133] doc/TUTORIAL/TEST_CASES/SIMPLE_JUNCTION/CASE1: Adding of
	  solution files for tutorial test cases

2007-11-28 12:52  Code_Saturne development team <saturne-support@edf.fr>

	* [r132] doc/TUTORIAL/TEST_CASES/FULL_DOMAIN/CASE4/DATA,
	  doc/TUTORIAL/TEST_CASES/FULL_DOMAIN/CASE4/DATA/case4.xml,
	  doc/TUTORIAL/TEST_CASES/FULL_DOMAIN/CASE4/FORT,
	  doc/TUTORIAL/TEST_CASES/FULL_DOMAIN/CASE4/FORT/usclim.F,
	  doc/TUTORIAL/TEST_CASES/FULL_DOMAIN/CASE4/FORT/uskpdc.F,
	  doc/TUTORIAL/TEST_CASES/FULL_DOMAIN/CASE4/FORT/usphyv.F,
	  doc/TUTORIAL/TEST_CASES/FULL_DOMAIN/CASE4/FORT/usproj.F,
	  doc/TUTORIAL/TEST_CASES/FULL_DOMAIN/CASE4/SCRIPTS,
	  doc/TUTORIAL/TEST_CASES/FULL_DOMAIN/CASE4/SCRIPTS/lance: Adding
	  of solution files for tutorial test cases

2007-11-28 12:51  Code_Saturne development team <saturne-support@edf.fr>

	* [r131] doc/TUTORIAL/TEST_CASES/FULL_DOMAIN/CASE3/DATA/case3.xml,
	  doc/TUTORIAL/TEST_CASES/FULL_DOMAIN/CASE3/FORT/usclim.F,
	  doc/TUTORIAL/TEST_CASES/FULL_DOMAIN/CASE3/FORT/usphyv.F,
	  doc/TUTORIAL/TEST_CASES/FULL_DOMAIN/CASE3/SCRIPTS/lance: Adding
	  of solution files for tutorial test cases

2007-11-28 12:51  Code_Saturne development team <saturne-support@edf.fr>

	* [r130] doc/TUTORIAL/TEST_CASES/FULL_DOMAIN/CASE3/DATA,
	  doc/TUTORIAL/TEST_CASES/FULL_DOMAIN/CASE3/FORT,
	  doc/TUTORIAL/TEST_CASES/FULL_DOMAIN/CASE3/SCRIPTS: Adding of
	  solution files for tutorial test cases

2007-11-28 12:50  Code_Saturne development team <saturne-support@edf.fr>

	* [r129] doc/TUTORIAL/TEST_CASES/FULL_DOMAIN/CASE2/DATA/case2.xml,
	  doc/TUTORIAL/TEST_CASES/FULL_DOMAIN/CASE2/SCRIPTS/lance: Adding
	  of solution files for tutorial test cases

2007-11-28 12:50  Code_Saturne development team <saturne-support@edf.fr>

	* [r128] doc/TUTORIAL/TEST_CASES/FULL_DOMAIN/CASE2/DATA,
	  doc/TUTORIAL/TEST_CASES/FULL_DOMAIN/CASE2/FORT,
	  doc/TUTORIAL/TEST_CASES/FULL_DOMAIN/CASE2/SCRIPTS: Adding of
	  solution files for tutorial test cases

2007-11-28 12:50  Code_Saturne development team <saturne-support@edf.fr>

	* [r127] doc/TUTORIAL/TEST_CASES/FULL_DOMAIN/CASE2,
	  doc/TUTORIAL/TEST_CASES/FULL_DOMAIN/CASE3,
	  doc/TUTORIAL/TEST_CASES/FULL_DOMAIN/CASE4: Adding of solution
	  files for tutorial test cases

2007-11-28 12:49  Code_Saturne development team <saturne-support@edf.fr>

	* [r126] doc/TUTORIAL/TEST_CASES/FULL_DOMAIN,
	  doc/TUTORIAL/TEST_CASES/SIMPLE_JUNCTION,
	  doc/TUTORIAL/TEST_CASES/STRATIFIED_JUNCTION: Adding of solution
	  files for tutorial test cases

2007-11-28 12:49  Code_Saturne development team <saturne-support@edf.fr>

	* [r125] doc/TUTORIAL/TEST_CASES: Adding of solution files for
	  tutorial test cases

2007-11-28 12:44  Code_Saturne development team <saturne-support@edf.fr>

	* [r124] doc/TUTORIAL/latex/case1.tex,
	  doc/TUTORIAL/latex/case2.tex, doc/TUTORIAL/latex/case3.tex,
	  doc/TUTORIAL/latex/case4.tex, doc/TUTORIAL/latex/intro.tex,
	  doc/TUTORIAL/latex/tuto_case2.tex: Final corrections for version
	  1.3.1

2007-11-22 14:23  Code_Saturne development team <saturne-support@edf.fr>

	* [r123] src/base/cs_gui.c: Final corrections for version 1.3.1

2007-11-21 14:04  Code_Saturne development team <saturne-support@edf.fr>

	* [r122] bin/lance: Final corrections for version 1.3.1

2007-11-21 08:15  Code_Saturne development team <saturne-support@edf.fr>

	* [r121] bin/lance: Final corrections for version 1.3.1

2007-11-21 07:24  Code_Saturne development team <saturne-support@edf.fr>

	* [r120] doc/style/csdoc.sty: Final corrections for version 1.3.1

2007-11-21 07:24  Code_Saturne development team <saturne-support@edf.fr>

	* [r119] src/base/postlc.F[DEL]: Final corrections for version
	  1.3.1

2007-11-21 07:19  Code_Saturne development team <saturne-support@edf.fr>

	* [r118] users/base/usrubm.F[DEL]: Final corrections for version
	  1.3.1

2007-11-21 07:19  Code_Saturne development team <saturne-support@edf.fr>

	* [r117] users/rayt/usray5.F: Final corrections for version 1.3.1

2007-11-21 07:19  Code_Saturne development team <saturne-support@edf.fr>

	* [r116] users/lagr/uslabo.F, users/lagr/usladp.F,
	  users/lagr/uslafe.F, users/lagr/uslag2.F, users/lagr/uslain.F:
	  Final corrections for version 1.3.1

2007-11-21 07:19  Code_Saturne development team <saturne-support@edf.fr>

	* [r115] users/fuel/usfucl.F, users/fuel/usfuiv.F: Final
	  corrections for version 1.3.1

2007-11-21 07:19  Code_Saturne development team <saturne-support@edf.fr>

	* [r114] users/elec/uselcl.F, users/elec/useliv.F,
	  users/elec/uselph.F: Final corrections for version 1.3.1

2007-11-21 07:19  Code_Saturne development team <saturne-support@edf.fr>

	* [r113] users/cplv/uscpcl.F, users/cplv/uscpiv.F,
	  users/cplv/uscplc.F: Final corrections for version 1.3.1

2007-11-21 07:18  Code_Saturne development team <saturne-support@edf.fr>

	* [r112] users/cogz/usd3pc.F, users/cogz/usd3pi.F,
	  users/cogz/usebuc.F, users/cogz/usebui.F, users/cogz/uslwcc.F,
	  users/cogz/uslwci.F: Final corrections for version 1.3.1

2007-11-21 07:18  Code_Saturne development team <saturne-support@edf.fr>

	* [r111] users/cfbl/uscfcl.F, users/cfbl/uscfpv.F,
	  users/cfbl/uscfxi.F: Final corrections for version 1.3.1

2007-11-21 07:18  Code_Saturne development team <saturne-support@edf.fr>

	* [r110] users/base/usalcl.F, users/base/usiniv.F,
	  users/base/usnpst.F, users/base/ustske.F, users/base/ustskw.F,
	  users/base/ustsns.F, users/base/ustsri.F, users/base/ustsv2.F:
	  Final corrections for version 1.3.1

2007-11-21 07:18  Code_Saturne development team <saturne-support@edf.fr>

	* [r109] src/pprt/ppclim.F, src/pprt/ppiniv.F: Final corrections
	  for version 1.3.1

2007-11-21 07:18  Code_Saturne development team <saturne-support@edf.fr>

	* [r108] src/lagr/cs_lagrang.c, src/lagr/enslag.F,
	  src/lagr/lagaff.F, src/lagr/lagcel.F, src/lagr/lagent.F,
	  src/lagr/lagesp.F, src/lagr/lagfch.F, src/lagr/laghis.F,
	  src/lagr/laglis.F, src/lagr/lagnpr.F, src/lagr/lagnwc.F,
	  src/lagr/lagout.F, src/lagr/lagune.F: Final corrections for
	  version 1.3.1

2007-11-21 07:17  Code_Saturne development team <saturne-support@edf.fr>

	* [r107] src/fuel/fucym1.F, src/fuel/fuflux.F, src/fuel/fuiniv.F,
	  src/fuel/fulecd.F, src/fuel/fuphy1.F, src/fuel/fuphy2.F,
	  src/fuel/fuphyv.F, src/fuel/fuptcl.F, src/fuel/futeh1.F,
	  src/fuel/futeh2.F, src/fuel/futhp1.F, src/fuel/futssc.F,
	  src/fuel/futsvc.F, src/fuel/futsvi.F, src/fuel/fuveri.F: Final
	  corrections for version 1.3.1

2007-11-21 07:17  Code_Saturne development team <saturne-support@edf.fr>

	* [r106] src/elec/eliniv.F, src/elec/elphyv.F, src/elec/elveri.F:
	  Final corrections for version 1.3.1

2007-11-21 07:17  Code_Saturne development team <saturne-support@edf.fr>

	* [r105] src/cplv/cpcym2.F, src/cplv/cpflux.F, src/cplv/cpiniv.F,
	  src/cplv/cplecd.F, src/cplv/cplini.F, src/cplv/cplver.F,
	  src/cplv/cpphy1.F, src/cplv/cpphyv.F, src/cplv/cptssc.F: Final
	  corrections for version 1.3.1

2007-11-21 07:16  Code_Saturne development team <saturne-support@edf.fr>

	* [r104] src/cogz/d3pini.F, src/cogz/d3pver.F, src/cogz/ebuini.F,
	  src/cogz/ebuver.F, src/cogz/lwcini.F, src/cogz/lwcver.F,
	  src/cogz/pdflwc.F, src/cogz/pdfpp4.F: Final corrections for
	  version 1.3.1

2007-11-21 07:16  Code_Saturne development team <saturne-support@edf.fr>

	* [r103] src/cfbl/cfiniv.F, src/cfbl/cfmsfl.F, src/cfbl/cfmsgs.F,
	  src/cfbl/cfphyv.F, src/cfbl/cfqdmv.F: Final corrections for
	  version 1.3.1

2007-11-21 07:16  Code_Saturne development team <saturne-support@edf.fr>

	* [r102] src/base/calhyd.F, src/base/caltri.F, src/base/clptrg.F,
	  src/base/cregeo.F, src/base/cs_blas.c, src/base/cs_gui.c,
	  src/base/cs_matrix.c, src/base/cs_mesh_coherency.c,
	  src/base/cs_mesh_warping.c, src/base/cs_opts.c,
	  src/base/cs_parall.c, src/base/cs_selector.c, src/base/iniusi.F,
	  src/base/inivar.F, src/base/preduv.F, src/base/prods2.F,
	  src/base/prods3.F, src/base/prodsc.F, src/base/reseps.F,
	  src/base/resolp.F, src/base/resrij.F, src/base/resssg.F,
	  src/base/resv2f.F, src/base/scalai.F, src/base/strhis.F,
	  src/base/turbke.F, src/base/turbkw.F, src/base/typecl.F: Final
	  corrections for version 1.3.1

2007-11-21 07:15  Code_Saturne development team <saturne-support@edf.fr>

	* [r101] include/fuel/fuincl.h: Final corrections for version 1.3.1

2007-11-21 07:15  Code_Saturne development team <saturne-support@edf.fr>

	* [r100] include/base/optcal.h: Final corrections for version 1.3.1

2007-11-21 07:15  Code_Saturne development team <saturne-support@edf.fr>

	* [r99] include/base/cs_gui.h: Final corrections for version 1.3.1

2007-11-21 07:14  Code_Saturne development team <saturne-support@edf.fr>

	* [r98] bin/Makefile, bin/autovalid.xml, bin/check_mesh,
	  bin/cs_profile, bin/lance, bin/macros_Linux_Ch.mk: Final
	  corrections for version 1.3.1

2007-11-21 07:14  Code_Saturne development team <saturne-support@edf.fr>

	* [r97] COMPATIBILITY, Changelog: Final corrections for version
	  1.3.1

2007-11-07 14:59  Code_Saturne development team <saturne-support@edf.fr>

	* [r95] src/fuel/fuphy1.F: Minor modification in fuphy1.F

2007-11-07 14:59  Code_Saturne development team <saturne-support@edf.fr>

	* [r94] Changelog: Minor modification in fuphy1.F

2007-11-07 07:09  Code_Saturne development team <saturne-support@edf.fr>

	* [r91] doc/USER/latex/saturne1.tex: Latest validation corrections
	  and tagging of intermediate version 1.3.1-rc1 before second phase
	  of validation campaign

2007-11-07 07:09  Code_Saturne development team <saturne-support@edf.fr>

	* [r90] bin/lance: Latest validation corrections and tagging of
	  intermediate version 1.3.1-rc1 before second phase of validation
	  campaign

2007-11-07 06:26  Code_Saturne development team <saturne-support@edf.fr>

	* [r89] users/rayt/usray5.F: Latest validation corrections and
	  tagging of intermediate version 1.3.1-rc1 before second phase of
	  validation campaign

2007-11-07 06:26  Code_Saturne development team <saturne-support@edf.fr>

	* [r88] src/rayt/raycli.F: Latest validation corrections and
	  tagging of intermediate version 1.3.1-rc1 before second phase of
	  validation campaign

2007-11-07 06:25  Code_Saturne development team <saturne-support@edf.fr>

	* [r87] src/base/cs_main.c: Latest validation corrections and
	  tagging of intermediate version 1.3.1-rc1 before second phase of
	  validation campaign

2007-11-07 06:25  Code_Saturne development team <saturne-support@edf.fr>

	* [r86] src/base/cs_base.c, src/base/cs_ext_neighborhood.c,
	  src/base/cs_gui.c, src/base/cs_gui_radiative_transfer.c,
	  src/base/cs_halo.c, src/base/cs_mesh_coherency.c,
	  src/base/cs_opts.c, src/base/cs_pp_io.c, src/base/strdep.F,
	  src/base/strpre.F, src/base/vandri.F: Latest validation
	  corrections and tagging of intermediate version 1.3.1-rc1 before
	  second phase of validation campaign

2007-11-07 06:25  Code_Saturne development team <saturne-support@edf.fr>

	* [r85] include/base/cs_gui_radiative_transfer.h,
	  include/base/cs_pp_io.h: Latest validation corrections and
	  tagging of intermediate version 1.3.1-rc1 before second phase of
	  validation campaign

2007-11-07 06:24  Code_Saturne development team <saturne-support@edf.fr>

	* [r84] doc/style/csdoc.sty: Latest validation corrections and
	  tagging of intermediate version 1.3.1-rc1 before second phase of
	  validation campaign

2007-11-07 06:23  Code_Saturne development team <saturne-support@edf.fr>

	* [r83] bin/cs_profile, bin/lance, bin/macros_Linux.mk,
	  bin/macros_Linux_Ch.mk: Latest validation corrections and tagging
	  of intermediate version 1.3.1-rc1 before second phase of
	  validation campaign

2007-11-07 06:23  Code_Saturne development team <saturne-support@edf.fr>

	* [r82] COMPATIBILITY, Changelog: Latest validation corrections and
	  tagging of intermediate version 1.3.1-rc1 before second phase of
	  validation campaign

2007-11-05 06:45  Code_Saturne development team <saturne-support@edf.fr>

	* [r81] doc/USER/graphics/vortex.fig.bak[DEL]: Removal of useless
	  redundant file

2007-10-31 09:04  Code_Saturne development team <saturne-support@edf.fr>

	* [r80] users/rayt/usray2.F: GUI update + various bug corrections
	  from validation of version 1.3.0

2007-10-31 09:04  Code_Saturne development team <saturne-support@edf.fr>

	* [r79] users/lagr/uslag2.F: GUI update + various bug corrections
	  from validation of version 1.3.0

2007-10-31 09:04  Code_Saturne development team <saturne-support@edf.fr>

	* [r78] users/fuel/usfucl.F: GUI update + various bug corrections
	  from validation of version 1.3.0

2007-10-31 09:04  Code_Saturne development team <saturne-support@edf.fr>

	* [r77] users/elec/uselcl.F, users/elec/usetcl.F: GUI update +
	  various bug corrections from validation of version 1.3.0

2007-10-31 09:04  Code_Saturne development team <saturne-support@edf.fr>

	* [r76] users/cplv/uscpcl.F, users/cplv/uscplc.F: GUI update +
	  various bug corrections from validation of version 1.3.0

2007-10-31 09:04  Code_Saturne development team <saturne-support@edf.fr>

	* [r75] users/cogz/usd3pc.F, users/cogz/usebuc.F,
	  users/cogz/uslwcc.F: GUI update + various bug corrections from
	  validation of version 1.3.0

2007-10-31 09:03  Code_Saturne development team <saturne-support@edf.fr>

	* [r74] users/cfbl/uscfcl.F: GUI update + various bug corrections
	  from validation of version 1.3.0

2007-10-31 09:03  Code_Saturne development team <saturne-support@edf.fr>

	* [r73] users/base/usalcl.F, users/base/usclim.F,
	  users/base/uskpdc.F, users/base/usproj.F, users/base/uspt1d.F,
	  users/base/usstru.F, users/base/ustsma.F, users/base/ustssc.F,
	  users/base/usvort.F: GUI update + various bug corrections from
	  validation of version 1.3.0

2007-10-31 09:03  Code_Saturne development team <saturne-support@edf.fr>

	* [r72] src/pprt/ppclim.F: GUI update + various bug corrections
	  from validation of version 1.3.0

2007-10-31 09:03  Code_Saturne development team <saturne-support@edf.fr>

	* [r71] src/cplv/cptssc.F: GUI update + various bug corrections
	  from validation of version 1.3.0

2007-10-31 09:03  Code_Saturne development team <saturne-support@edf.fr>

	* [r70] src/base/cs_gui.c: GUI update + various bug corrections
	  from validation of version 1.3.0

2007-10-31 09:02  Code_Saturne development team <saturne-support@edf.fr>

	* [r69] src/base/caltri.F, src/base/cs_ext_neighborhood.c,
	  src/base/cs_gui_radiative_transfer.c, src/base/cs_gui_util.c,
	  src/base/cs_main.c, src/base/cs_syr_messages.c,
	  src/base/iniusi.F, src/base/resrij.F, src/base/strdep.F,
	  src/base/tridim.F: GUI update + various bug corrections from
	  validation of version 1.3.0

2007-10-31 09:02  Code_Saturne development team <saturne-support@edf.fr>

	* [r68] include/base/cs_gui.h,
	  include/base/cs_gui_radiative_transfer.h: GUI update + various
	  bug corrections from validation of version 1.3.0

2007-10-31 09:01  Code_Saturne development team <saturne-support@edf.fr>

	* [r67] doc/USER/latex/biblio.tex, doc/USER/latex/saturne1.tex,
	  doc/USER/latex/saturne2.tex: GUI update + various bug corrections
	  from validation of version 1.3.0

2007-10-31 09:01  Code_Saturne development team <saturne-support@edf.fr>

	* [r66] bin/cs_profile, bin/lance, bin/lance.help,
	  bin/lance_install: GUI update + various bug corrections from
	  validation of version 1.3.0

2007-10-22 18:01  Code_Saturne development team <saturne-support@edf.fr>

	* [r65] src/base/cs_ext_neighborhood.c, src/base/cs_gradient.c:
	  Various corrections from latests 1.3.0 validation tests

2007-10-22 18:01  Code_Saturne development team <saturne-support@edf.fr>

	* [r64] bin/Makefile, bin/macros_Blue_Gene_L.mk: Various
	  corrections from latests 1.3.0 validation tests

2007-10-22 18:01  Code_Saturne development team <saturne-support@edf.fr>

	* [r63] Changelog: Various corrections from latests 1.3.0
	  validation tests

2007-10-22 15:17  Code_Saturne development team <saturne-support@edf.fr>

	* [r62] src/rayt/raycli.F: Various corrections from latests 1.3.0
	  validation tests

2007-10-22 15:17  Code_Saturne development team <saturne-support@edf.fr>

	* [r61] src/lagr/cs_lagr_perio.c, src/lagr/lagcel.F: Various
	  corrections from latests 1.3.0 validation tests

2007-10-22 15:16  Code_Saturne development team <saturne-support@edf.fr>

	* [r60] src/cplv/cpvarp.F: Various corrections from latests 1.3.0
	  validation tests

2007-10-22 15:16  Code_Saturne development team <saturne-support@edf.fr>

	* [r59] src/base/cs_benchmark.c, src/base/cs_gui.c,
	  src/base/cs_gui_radiative_transfer.c, src/base/cs_matrix.c,
	  src/base/cs_perio.c, src/base/cs_selector.c, src/base/cs_suite.c,
	  src/base/scalai.F: Various corrections from latests 1.3.0
	  validation tests

2007-10-22 15:15  Code_Saturne development team <saturne-support@edf.fr>

	* [r58] bin/lance_install, bin/macros_Linux_CCRT.mk,
	  bin/macros_Linux_IA64.mk: Various corrections from latests 1.3.0
	  validation tests

2007-10-22 15:14  Code_Saturne development team <saturne-support@edf.fr>

	* [r57] Changelog: Various corrections from latests 1.3.0
	  validation tests

2007-10-16 07:43  Code_Saturne development team <saturne-support@edf.fr>

	* [r56] bin/macros_Linux.mk: Various corrections by Y. Fournier and
	  D. Monfort

2007-10-16 07:12  Code_Saturne development team <saturne-support@edf.fr>

	* [r55] Changelog: Various corrections by Y. Fournier and D.
	  Monfort

2007-10-16 07:11  Code_Saturne development team <saturne-support@edf.fr>

	* [r54] src/base/covofi.F, src/base/cs_benchmark.c,
	  src/base/cs_ext_neighborhood.c, src/base/cs_gui.c,
	  src/base/cs_gui_radiative_transfer.c, src/base/cs_halo.c,
	  src/base/cs_matrix.c, src/base/cs_mesh.c, src/base/cs_parall.c,
	  src/base/cs_selector.c, src/base/reseps.F, src/base/varpos.F,
	  src/base/verini.F: Various corrections by Y. Fournier and D.
	  Monfort

2007-10-16 07:10  Code_Saturne development team <saturne-support@edf.fr>

	* [r53] include/base/cs_mesh.h: Various corrections by Y. Fournier
	  and D. Monfort

2007-10-16 07:10  Code_Saturne development team <saturne-support@edf.fr>

	* [r52] doc/TUTORIAL/latex/case5.tex: Modification of tutorial
	  figures

2007-10-16 07:09  Code_Saturne development team <saturne-support@edf.fr>

	* [r51] doc/TUTORIAL/graphics/c5_config.jpg,
	  doc/TUTORIAL/graphics/c5_config.pdf[DEL],
	  doc/TUTORIAL/graphics/case3_p1.jpg,
	  doc/TUTORIAL/graphics/case3_p2.jpg,
	  doc/TUTORIAL/graphics/case3_p3.jpg,
	  doc/TUTORIAL/graphics/case3_p4.jpg,
	  doc/TUTORIAL/graphics/case3_p5.jpg,
	  doc/TUTORIAL/graphics/case3_p6.jpg,
	  doc/TUTORIAL/graphics/fig01.jpg, doc/TUTORIAL/graphics/fig02.jpg,
	  doc/TUTORIAL/graphics/fig04.jpg, doc/TUTORIAL/graphics/fig05.jpg,
	  doc/TUTORIAL/graphics/fig09.jpg: Modification of tutorial figures

2007-10-16 07:08  Code_Saturne development team <saturne-support@edf.fr>

	* [r50] bin/cs.exe, bin/gracehst, bin/info_cs, bin/lance_install,
	  bin/macros_Blue_Gene_L.mk, bin/macros_IRIX64.mk,
	  bin/macros_Linux.mk, bin/macros_Linux_CCRT.mk,
	  bin/macros_Linux_Ch.mk, bin/macros_Linux_IA64.mk,
	  bin/macros_SunOS.mk, bin/rang_mpi.sh: Various corrections by Y.
	  Fournier and D. Monfort

2007-10-16 07:07  Code_Saturne development team <saturne-support@edf.fr>

	* [r49] aux/macros_old/README: Creation of directory for obsolete
	  macros_*.mk files

2007-10-16 07:04  Code_Saturne development team <saturne-support@edf.fr>

	* [r48] aux/macros_old/macros_HP-UX.mk[CPY],
	  aux/macros_old/macros_OSF1.mk[CPY]: Creation of directory for
	  obsolete macros_*.mk files

2007-10-16 07:03  Code_Saturne development team <saturne-support@edf.fr>

	* [r47] bin/macros_HP-UX.mk[DEL], bin/macros_OSF1.mk[DEL]: Creation
	  of directory for obsolete macros_*.mk files

2007-10-16 07:00  Code_Saturne development team <saturne-support@edf.fr>

	* [r46] aux/macros_old: Creation of directory for obsolete
	  macros_*.mk files

2007-10-10 15:55  Code_Saturne development team <saturne-support@edf.fr>

	* [r44] bin/Makefile: Integration of bug corrections from
	  validation

2007-10-10 14:21  Code_Saturne development team <saturne-support@edf.fr>

	* [r43] AUTHORS, COMPATIBILITY, Changelog: Integration of bug
	  corrections from validation

2007-10-10 14:21  Code_Saturne development team <saturne-support@edf.fr>

	* [r42] bin/macros_OSF1.mk: Integration of bug corrections from
	  validation

2007-10-10 14:18  Code_Saturne development team <saturne-support@edf.fr>

	* [r41] users/elec/uselrc.F: Integration of bug corrections from
	  validation

2007-10-10 14:18  Code_Saturne development team <saturne-support@edf.fr>

	* [r40] users/base/usdpst.F, users/base/usproj.F: Integration of
	  bug corrections from validation

2007-10-10 14:18  Code_Saturne development team <saturne-support@edf.fr>

	* [r39] src/rayt/raycli.F: Integration of bug corrections from
	  validation

2007-10-10 14:18  Code_Saturne development team <saturne-support@edf.fr>

	* [r38] src/lagr/lagent.F, src/lagr/laglec.F, src/lagr/memla1.F:
	  Integration of bug corrections from validation

2007-10-10 14:18  Code_Saturne development team <saturne-support@edf.fr>

	* [r37] src/base/caltri.F, src/base/covofi.F, src/base/cs_base.c,
	  src/base/cs_benchmark.c, src/base/cs_ext_neighborhood.c,
	  src/base/cs_halo.c, src/base/cs_main.c, src/base/cs_mesh.c,
	  src/base/cs_mesh_coherency.c, src/base/cs_opts.c,
	  src/base/cs_pp_io.c, src/base/cs_sles.c, src/base/iniini.F,
	  src/base/majgeo.F, src/base/typecl.F: Integration of bug
	  corrections from validation

2007-10-10 14:16  Code_Saturne development team <saturne-support@edf.fr>

	* [r36] doc/USER/latex/summary.tex, doc/USER/latex/user.tex:
	  Reorganisation of documentation

2007-10-10 14:16  Code_Saturne development team <saturne-support@edf.fr>

	* [r35] doc/USER/input/logocs.png, doc/USER/input/logoedf.eps[DEL]:
	  Reorganisation of documentation

2007-10-10 14:16  Code_Saturne development team <saturne-support@edf.fr>

	* [r34] doc/USER/Makefile: Reorganisation of documentation

2007-10-10 14:15  Code_Saturne development team <saturne-support@edf.fr>

	* [r33] doc/THEORY/Makefile: Reorganisation of documentation

2007-10-10 14:15  Code_Saturne development team <saturne-support@edf.fr>

	* [r32] doc/THEORY/latex/Makefile, doc/THEORY/latex/summary.tex,
	  doc/THEORY/latex/theory.tex: Reorganisation of documentation

2007-10-10 14:15  Code_Saturne development team <saturne-support@edf.fr>

	* [r31] doc/THEORY/input/logocs.png, doc/THEORY/input/logoedf.pdf:
	  Reorganisation of documentation

2007-10-10 14:14  Code_Saturne development team <saturne-support@edf.fr>

	* [r30] doc/THEORY/input: Reorganisation of documentation

2007-10-10 14:14  Code_Saturne development team <saturne-support@edf.fr>

	* [r29] doc/TUTORIAL/latex/Makefile, doc/TUTORIAL/latex/case1.tex,
	  doc/TUTORIAL/latex/case2.tex, doc/TUTORIAL/latex/case3.tex,
	  doc/TUTORIAL/latex/case4.tex, doc/TUTORIAL/latex/case5.tex,
	  doc/TUTORIAL/latex/intro.tex, doc/TUTORIAL/latex/tuto_case1.tex,
	  doc/TUTORIAL/latex/tuto_case2.tex,
	  doc/TUTORIAL/latex/tuto_case3.tex,
	  doc/TUTORIAL/latex/tuto_case4.tex,
	  doc/TUTORIAL/latex/tuto_case5.tex,
	  doc/TUTORIAL/latex/tutorial.tex: Reorganisation of documentation

2007-10-10 14:13  Code_Saturne development team <saturne-support@edf.fr>

	* [r28] doc/TUTORIAL/input/Makefile, doc/TUTORIAL/input/logocs.png,
	  doc/TUTORIAL/input/logoedf.pdf: Reorganisation of documentation

2007-10-10 14:13  Code_Saturne development team <saturne-support@edf.fr>

	* [r27] doc/TUTORIAL/graphics/c1_capture01.png[DEL]: Reorganisation
	  of documentation

2007-10-10 14:12  Code_Saturne development team <saturne-support@edf.fr>

	* [r26] doc/TUTORIAL/graphics/Makefile,
	  doc/TUTORIAL/graphics/c1_capture01.jpg,
	  doc/TUTORIAL/graphics/c1_capture01.png,
	  doc/TUTORIAL/graphics/c1_capture02.jpg,
	  doc/TUTORIAL/graphics/c1_capture03.jpg,
	  doc/TUTORIAL/graphics/c1_capture04.jpg,
	  doc/TUTORIAL/graphics/c1_capture05.jpg,
	  doc/TUTORIAL/graphics/c1_capture06.jpg,
	  doc/TUTORIAL/graphics/c1_capture07.jpg,
	  doc/TUTORIAL/graphics/c1_capture08.jpg,
	  doc/TUTORIAL/graphics/c1_capture09.jpg,
	  doc/TUTORIAL/graphics/c1_capture10.jpg,
	  doc/TUTORIAL/graphics/c1_capture11.jpg,
	  doc/TUTORIAL/graphics/c1_capture12.jpg,
	  doc/TUTORIAL/graphics/c1_capture13.jpg,
	  doc/TUTORIAL/graphics/c1_capture14.jpg,
	  doc/TUTORIAL/graphics/c1_capture15.jpg,
	  doc/TUTORIAL/graphics/c1_capture16.jpg,
	  doc/TUTORIAL/graphics/c1_capture17.jpg,
	  doc/TUTORIAL/graphics/c1_capture18.jpg,
	  doc/TUTORIAL/graphics/c1_capture19.jpg,
	  doc/TUTORIAL/graphics/c1_capture20.jpg,
	  doc/TUTORIAL/graphics/c1_capture21.jpg,
	  doc/TUTORIAL/graphics/c1_capture22.jpg,
	  doc/TUTORIAL/graphics/c1_capture23.jpg,
	  doc/TUTORIAL/graphics/c1_capture24.jpg,
	  doc/TUTORIAL/graphics/c1_capture25.jpg,
	  doc/TUTORIAL/graphics/c1_capture26.jpg,
	  doc/TUTORIAL/graphics/c1_capture27.jpg,
	  doc/TUTORIAL/graphics/c1_capture28.jpg,
	  doc/TUTORIAL/graphics/c1_capture29.jpg,
	  doc/TUTORIAL/graphics/c1_capture30.jpg,
	  doc/TUTORIAL/graphics/c1_capture31.jpg,
	  doc/TUTORIAL/graphics/c1_capture32.jpg,
	  doc/TUTORIAL/graphics/c1_capture33.jpg,
	  doc/TUTORIAL/graphics/c1_capture34.jpg,
	  doc/TUTORIAL/graphics/c1_capture35.jpg,
	  doc/TUTORIAL/graphics/c1_capture36.jpg,
	  doc/TUTORIAL/graphics/c1_capture37.jpg,
	  doc/TUTORIAL/graphics/c1_capture38.jpg,
	  doc/TUTORIAL/graphics/c1_capture39.jpg,
	  doc/TUTORIAL/graphics/c1_capture40.jpg,
	  doc/TUTORIAL/graphics/c1_capture41.jpg,
	  doc/TUTORIAL/graphics/c1_capture42.jpg,
	  doc/TUTORIAL/graphics/c1_capture43.jpg,
	  doc/TUTORIAL/graphics/c2_capture01.jpg,
	  doc/TUTORIAL/graphics/c2_capture02.jpg,
	  doc/TUTORIAL/graphics/c2_capture03.jpg,
	  doc/TUTORIAL/graphics/c2_capture04.jpg,
	  doc/TUTORIAL/graphics/c2_capture05.jpg,
	  doc/TUTORIAL/graphics/c2_capture06.jpg,
	  doc/TUTORIAL/graphics/c2_capture07.jpg,
	  doc/TUTORIAL/graphics/c2_capture08.jpg,
	  doc/TUTORIAL/graphics/c2_capture09.jpg,
	  doc/TUTORIAL/graphics/c2_capture10.jpg,
	  doc/TUTORIAL/graphics/c2_capture11.jpg,
	  doc/TUTORIAL/graphics/c2_capture12.jpg,
	  doc/TUTORIAL/graphics/c2_capture13.jpg,
	  doc/TUTORIAL/graphics/c2_capture14.jpg,
	  doc/TUTORIAL/graphics/c2_capture15.jpg,
	  doc/TUTORIAL/graphics/c2_capture152.jpg,
	  doc/TUTORIAL/graphics/c2_capture16.jpg,
	  doc/TUTORIAL/graphics/c2_capture17.jpg,
	  doc/TUTORIAL/graphics/c2_capture18.jpg,
	  doc/TUTORIAL/graphics/c2_capture19.jpg,
	  doc/TUTORIAL/graphics/c2_capture20.jpg,
	  doc/TUTORIAL/graphics/c2_capture21.jpg,
	  doc/TUTORIAL/graphics/c2_capture212.jpg,
	  doc/TUTORIAL/graphics/c2_capture22.jpg,
	  doc/TUTORIAL/graphics/c2_capture23.jpg,
	  doc/TUTORIAL/graphics/c2_capture24.jpg,
	  doc/TUTORIAL/graphics/c2_capture25.jpg,
	  doc/TUTORIAL/graphics/c2_capture26.jpg,
	  doc/TUTORIAL/graphics/c2_capture27.jpg,
	  doc/TUTORIAL/graphics/c2_capture28.jpg,
	  doc/TUTORIAL/graphics/c2_capture29.jpg,
	  doc/TUTORIAL/graphics/c2_capture30.jpg,
	  doc/TUTORIAL/graphics/c2_p1.jpg, doc/TUTORIAL/graphics/c2_p2.jpg,
	  doc/TUTORIAL/graphics/c2_p3.jpg, doc/TUTORIAL/graphics/c2_p4.jpg,
	  doc/TUTORIAL/graphics/c2_p5.jpg, doc/TUTORIAL/graphics/c2_p6.jpg,
	  doc/TUTORIAL/graphics/c2_p7.jpg,
	  doc/TUTORIAL/graphics/c3_capture01.jpg,
	  doc/TUTORIAL/graphics/c3_capture02.jpg,
	  doc/TUTORIAL/graphics/c3_capture03.jpg,
	  doc/TUTORIAL/graphics/c3_capture04.jpg,
	  doc/TUTORIAL/graphics/c3_capture05.jpg,
	  doc/TUTORIAL/graphics/c3_capture06.jpg,
	  doc/TUTORIAL/graphics/c4_capture01.jpg,
	  doc/TUTORIAL/graphics/c4_capture02.jpg,
	  doc/TUTORIAL/graphics/c5_capture01.jpg,
	  doc/TUTORIAL/graphics/c5_capture02.jpg,
	  doc/TUTORIAL/graphics/c5_capture03.jpg,
	  doc/TUTORIAL/graphics/c5_capture04.jpg,
	  doc/TUTORIAL/graphics/c5_capture05.jpg,
	  doc/TUTORIAL/graphics/c5_capture06.jpg,
	  doc/TUTORIAL/graphics/c5_capture07.jpg,
	  doc/TUTORIAL/graphics/c5_capture08.jpg,
	  doc/TUTORIAL/graphics/c5_capture09.jpg,
	  doc/TUTORIAL/graphics/c5_capture10.jpg,
	  doc/TUTORIAL/graphics/c5_capture11.jpg,
	  doc/TUTORIAL/graphics/c5_capture12.jpg,
	  doc/TUTORIAL/graphics/c5_capture13.jpg,
	  doc/TUTORIAL/graphics/c5_config.pdf,
	  doc/TUTORIAL/graphics/capture10.jpg,
	  doc/TUTORIAL/graphics/capture11.jpg,
	  doc/TUTORIAL/graphics/capture12.jpg,
	  doc/TUTORIAL/graphics/capture13.jpg,
	  doc/TUTORIAL/graphics/cas1_t_1.jpg,
	  doc/TUTORIAL/graphics/cas1_t_10.jpg,
	  doc/TUTORIAL/graphics/cas1_t_20.jpg,
	  doc/TUTORIAL/graphics/cas1_t_29.jpg,
	  doc/TUTORIAL/graphics/case3.cmd,
	  doc/TUTORIAL/graphics/case3_p1.jpg,
	  doc/TUTORIAL/graphics/case3_p10.jpg,
	  doc/TUTORIAL/graphics/case3_p2.jpg,
	  doc/TUTORIAL/graphics/case3_p3.jpg,
	  doc/TUTORIAL/graphics/case3_p4.jpg,
	  doc/TUTORIAL/graphics/case3_p5.jpg,
	  doc/TUTORIAL/graphics/case3_p6.jpg,
	  doc/TUTORIAL/graphics/case3_p7.jpg,
	  doc/TUTORIAL/graphics/case3_p8.jpg,
	  doc/TUTORIAL/graphics/case3_p9.jpg,
	  doc/TUTORIAL/graphics/case4_p1.jpg,
	  doc/TUTORIAL/graphics/case4_p2.jpg,
	  doc/TUTORIAL/graphics/case4_p3.jpg,
	  doc/TUTORIAL/graphics/case4_p4.jpg,
	  doc/TUTORIAL/graphics/case4_p5.jpg,
	  doc/TUTORIAL/graphics/case4_p6.jpg,
	  doc/TUTORIAL/graphics/case5_01.jpg,
	  doc/TUTORIAL/graphics/case5_02.jpg,
	  doc/TUTORIAL/graphics/case5_03.jpg,
	  doc/TUTORIAL/graphics/case5_04.jpg,
	  doc/TUTORIAL/graphics/case5_05.jpg,
	  doc/TUTORIAL/graphics/case5_06.jpg,
	  doc/TUTORIAL/graphics/case5_07.jpg,
	  doc/TUTORIAL/graphics/case5_08.jpg,
	  doc/TUTORIAL/graphics/case5_09.jpg,
	  doc/TUTORIAL/graphics/color_Snimbus.jpg,
	  doc/TUTORIAL/graphics/evotemp_case3.agr,
	  doc/TUTORIAL/graphics/evotemp_case3.png,
	  doc/TUTORIAL/graphics/fig01.jpg, doc/TUTORIAL/graphics/fig02.jpg,
	  doc/TUTORIAL/graphics/fig03.jpg, doc/TUTORIAL/graphics/fig04.jpg,
	  doc/TUTORIAL/graphics/fig05.jpg, doc/TUTORIAL/graphics/fig06.jpg,
	  doc/TUTORIAL/graphics/fig07.jpg, doc/TUTORIAL/graphics/fig08.jpg,
	  doc/TUTORIAL/graphics/fig09.jpg,
	  doc/TUTORIAL/graphics/moytemp.png,
	  doc/TUTORIAL/graphics/probe9.agr,
	  doc/TUTORIAL/graphics/probe9.png: Reorganisation of documentation

2007-10-10 14:11  Code_Saturne development team <saturne-support@edf.fr>

	* [r25] doc/TUTORIAL/Makefile, doc/TUTORIAL/graphics,
	  doc/TUTORIAL/input, doc/TUTORIAL/latex: Reorganisation of
	  documentation

2007-10-10 14:11  Code_Saturne development team <saturne-support@edf.fr>

	* [r24] doc/style/csdoc.sty: Reorganisation of documentation

2007-10-10 14:10  Code_Saturne development team <saturne-support@edf.fr>

	* [r23] doc/TUTORIAL, doc/style: Reorganisation of documentation

2007-10-10 14:10  Code_Saturne development team <saturne-support@edf.fr>

	* [r22] bin/info_cs, bin/lance_install, bin/macros_Blue_Gene_L.mk,
	  bin/macros_HP-UX.mk, bin/macros_IRIX64.mk, bin/macros_Linux.mk,
	  bin/macros_Linux_CCRT.mk, bin/macros_Linux_Ch.mk,
	  bin/macros_Linux_IA64.mk, bin/macros_SunOS.mk: Integration of bug
	  corrections from validation

2007-10-10 14:06  Code_Saturne development team <saturne-support@edf.fr>

	* [r21] doc/USER/latex/noteEDF.sty[DEL],
	  doc/USER/latex/saturne.tex[DEL], doc/USER/latex/summary.tex[CPY],
	  doc/USER/latex/synthese.tex[DEL], doc/USER/latex/user.tex[CPY]:
	  Reorganisation of documentation

2007-10-10 14:05  Code_Saturne development team <saturne-support@edf.fr>

	* [r20] doc/USER[CPY], doc/UTILISATION[DEL]: Reorganisation of
	  documentation

2007-10-10 14:05  Code_Saturne development team <saturne-support@edf.fr>

	* [r19] doc/THEORY/latex/logoedf.pdf[DEL],
	  doc/THEORY/latex/noteEDF.sty[DEL],
	  doc/THEORY/latex/noyau.tex[DEL],
	  doc/THEORY/latex/summary.tex[CPY],
	  doc/THEORY/latex/synthese.tex[DEL],
	  doc/THEORY/latex/theory.tex[CPY]: Reorganisation of documentation

2007-10-10 14:03  Code_Saturne development team <saturne-support@edf.fr>

	* [r18] doc/THEORY/LaTeX[DEL], doc/THEORY/latex[CPY]:
	  Reorganisation of documentation

2007-10-10 14:03  Code_Saturne development team <saturne-support@edf.fr>

	* [r17] doc/NOYAU[DEL], doc/THEORY[CPY]: Reorganisation of
	  documentation

2007-08-21 10:41  Code_Saturne development team <saturne-support@edf.fr>

	* [r16] src/base/inipst.F: Bug corrections detected during
	  validation

2007-08-21 10:41  Code_Saturne development team <saturne-support@edf.fr>

	* [r15] Changelog: Bug corrections detected during validation

2007-08-21 10:38  Code_Saturne development team <saturne-support@edf.fr>

	* [r14] users/base/ustbus.F: Bug corrections detected during
	  validation

2007-08-21 10:38  Code_Saturne development team <saturne-support@edf.fr>

	* [r13] src/cplv/cpini1.F, src/cplv/cpprop.F, src/cplv/cptssc.F,
	  src/cplv/cpvarp.F: Bug corrections detected during validation

2007-08-21 10:37  Code_Saturne development team <saturne-support@edf.fr>

	* [r12] src/cfbl/cfmsvl.F: Bug corrections detected during
	  validation

2007-08-21 10:37  Code_Saturne development team <saturne-support@edf.fr>

	* [r11] src/base/caltri.F, src/base/cs_ext_neighborhood.c,
	  src/base/cs_gui.c, src/base/cs_gui_matisse.c,
	  src/base/cs_gui_radiative_transfer.c, src/base/cs_gui_util.c,
	  src/base/cs_opts.c, src/base/cs_pp_io.c, src/base/iniini.F,
	  src/base/iniusi.F, src/base/iniva0.F, src/base/memtri.F,
	  src/base/modini.F, src/base/reseps.F, src/base/stdtcl.F,
	  src/base/tridim.F: Bug corrections detected during validation

2007-08-21 10:37  Code_Saturne development team <saturne-support@edf.fr>

	* [r10] include/base/cs_gui.h: Bug corrections detected during
	  validation

2007-08-21 10:36  Code_Saturne development team <saturne-support@edf.fr>

	* [r9] doc/UTILISATION/latex/saturne.tex: Bug corrections detected
	  during validation

2007-08-21 10:36  Code_Saturne development team <saturne-support@edf.fr>

	* [r8] doc/NOYAU/LaTeX/noyau.tex: Bug corrections detected during
	  validation

2007-08-21 10:35  Code_Saturne development team <saturne-support@edf.fr>

	* [r7] bin/Makefile, bin/cs_profile, bin/lance.help,
	  bin/macros_Linux_IA64.mk: Bug corrections detected during
	  validation

2007-08-02 16:34  Code_Saturne development team <saturne-support@edf.fr>

	* [r4] src/base/cs_mesh.c: Minor correction of fvm_selector in
	  cs_mesh.c

2007-08-02 16:34  Code_Saturne development team <saturne-support@edf.fr>

	* [r3] Changelog: Minor correction of fvm_selector in cs_mesh.c

2007-08-02 16:05  Code_Saturne development team <saturne-support@edf.fr>

	* [r2] bin/gracehst: Minor correction to gracehst help

2007-07-26 13:48  Code_Saturne development team <saturne-support@edf.fr>

	* [r1] ., AUTHORS, COMPATIBILITY, COPYING, Changelog, TODO, aux,
	  aux/comparlist, aux/compil.exe, aux/listing_HP-UX.last,
	  aux/listing_IRIX64.last, aux/listing_Linux.last,
	  aux/listing_Linux_CCRT.last, aux/listing_Linux_Ch.last,
	  aux/listing_OSF1.last, aux/listing_SunOS.last, aux/rmb.sh,
	  aux/rmb.sh_lance, bin, bin/Autovalidation,
	  bin/Autovalidation/Case.py, bin/Autovalidation/Chrono.py,
	  bin/Autovalidation/CommandLine.py, bin/Autovalidation/Common.py,
	  bin/Autovalidation/Listing.py, bin/Autovalidation/Parser.py,
	  bin/Autovalidation/Study.py, bin/Autovalidation/__init__.py,
	  bin/Makefile, bin/SaturneGUI, bin/autovalid, bin/autovalid.xml,
	  bin/check_mesh, bin/compiler_version, bin/cree_sat,
	  bin/cs_profile, bin/gracehst, bin/grp, bin/info_cs, bin/lance,
	  bin/lance.help, bin/lance_install, bin/macros_Blue_Gene_L.mk,
	  bin/macros_HP-UX.mk, bin/macros_IRIX64.mk, bin/macros_Linux.mk,
	  bin/macros_Linux_CCRT.mk, bin/macros_Linux_Ch.mk,
	  bin/macros_Linux_IA64.mk, bin/macros_OSF1.mk,
	  bin/macros_SunOS.mk, bin/rang_mpi.sh, data, data/mati,
	  data/mati/emm.dat, data/mati/emm.geom, data/mati/vault.dat,
	  data/mati/vault.geom, data/thch, data/thch/JANAF,
	  data/thch/dp_C3P, data/thch/dp_C3PSJ, data/thch/dp_C4P,
	  data/thch/dp_ELE, data/thch/dp_FCP, data/thch/dp_FUE,
	  data/thch/dp_transfo, doc, doc/NOYAU, doc/NOYAU/Base,
	  doc/NOYAU/Base/Bilsc2, doc/NOYAU/Base/Bilsc2/Images,
	  doc/NOYAU/Base/Bilsc2/Images/facebord.fig,
	  doc/NOYAU/Base/Bilsc2/Images/facebord.pdf,
	  doc/NOYAU/Base/Bilsc2/Images/facette.fig,
	  doc/NOYAU/Base/Bilsc2/Images/facette.pdf,
	  doc/NOYAU/Base/Bilsc2/Images/support.fig,
	  doc/NOYAU/Base/Bilsc2/Images/support.pdf,
	  doc/NOYAU/Base/Bilsc2/disc.tex, doc/NOYAU/Base/Bilsc2/fonc.tex,
	  doc/NOYAU/Base/Bilsc2/mioe.tex, doc/NOYAU/Base/Clptur,
	  doc/NOYAU/Base/Clptur/Images,
	  doc/NOYAU/Base/Clptur/Images/aatyp.fig,
	  doc/NOYAU/Base/Clptur/Images/aatyp.pdf,
	  doc/NOYAU/Base/Clptur/Images/bordortho.fig,
	  doc/NOYAU/Base/Clptur/Images/bordortho.pdf,
	  doc/NOYAU/Base/Clptur/Images/clthermique.dat,
	  doc/NOYAU/Base/Clptur/Images/clthermique.f,
	  doc/NOYAU/Base/Clptur/Images/clthermique.pdf,
	  doc/NOYAU/Base/Clptur/Images/clthermique.xmgr,
	  doc/NOYAU/Base/Clptur/Images/fluxbord.fig,
	  doc/NOYAU/Base/Clptur/Images/fluxbord.pdf,
	  doc/NOYAU/Base/Clptur/Images/lin.dat,
	  doc/NOYAU/Base/Clptur/Images/loilog.f,
	  doc/NOYAU/Base/Clptur/Images/loilog.pdf,
	  doc/NOYAU/Base/Clptur/Images/loilog.xmgr,
	  doc/NOYAU/Base/Clptur/Images/un.dat,
	  doc/NOYAU/Base/Clptur/disc.tex, doc/NOYAU/Base/Clptur/fonc.tex,
	  doc/NOYAU/Base/Clptur/mioe.tex, doc/NOYAU/Base/Clsyvt,
	  doc/NOYAU/Base/Clsyvt/Images,
	  doc/NOYAU/Base/Clsyvt/Images/facesym.fig,
	  doc/NOYAU/Base/Clsyvt/Images/facesym.pdf,
	  doc/NOYAU/Base/Clsyvt/disc.tex, doc/NOYAU/Base/Clsyvt/fonc.tex,
	  doc/NOYAU/Base/Clsyvt/mioe.tex, doc/NOYAU/Base/Codits,
	  doc/NOYAU/Base/Codits/Images,
	  doc/NOYAU/Base/Codits/Images/facebord.pdf,
	  doc/NOYAU/Base/Codits/Images/facette.pdf,
	  doc/NOYAU/Base/Codits/disc.tex, doc/NOYAU/Base/Codits/fonc.tex,
	  doc/NOYAU/Base/Codits/mioe.tex, doc/NOYAU/Base/Condli,
	  doc/NOYAU/Base/Condli/Images,
	  doc/NOYAU/Base/Condli/Images/fluxbord.fig,
	  doc/NOYAU/Base/Condli/Images/fluxbord.pdf,
	  doc/NOYAU/Base/Condli/Images/r.log,
	  doc/NOYAU/Base/Condli/Images/texput.log,
	  doc/NOYAU/Base/Condli/Images/xfig.SAVE,
	  doc/NOYAU/Base/Condli/disc.tex, doc/NOYAU/Base/Condli/fonc.tex,
	  doc/NOYAU/Base/Condli/mioe.tex, doc/NOYAU/Base/Covofi,
	  doc/NOYAU/Base/Covofi/Images,
	  doc/NOYAU/Base/Covofi/Images/domaine1d.fig,
	  doc/NOYAU/Base/Covofi/Images/domaine1d.pdf,
	  doc/NOYAU/Base/Covofi/disc.tex, doc/NOYAU/Base/Covofi/fonc.tex,
	  doc/NOYAU/Base/Covofi/mioe.tex, doc/NOYAU/Base/Gradmc,
	  doc/NOYAU/Base/Gradmc/Images,
	  doc/NOYAU/Base/Gradmc/Images/facebord.fig,
	  doc/NOYAU/Base/Gradmc/Images/facebord.pdf,
	  doc/NOYAU/Base/Gradmc/Images/facette.fig,
	  doc/NOYAU/Base/Gradmc/Images/facette.pdf,
	  doc/NOYAU/Base/Gradmc/Images/support.fig,
	  doc/NOYAU/Base/Gradmc/Images/support.pdf,
	  doc/NOYAU/Base/Gradmc/disc.tex, doc/NOYAU/Base/Gradmc/fonc.tex,
	  doc/NOYAU/Base/Gradmc/mioe.tex, doc/NOYAU/Base/Gradrc,
	  doc/NOYAU/Base/Gradrc/Images,
	  doc/NOYAU/Base/Gradrc/Images/facebord.fig,
	  doc/NOYAU/Base/Gradrc/Images/facebord.pdf,
	  doc/NOYAU/Base/Gradrc/Images/facette.fig,
	  doc/NOYAU/Base/Gradrc/Images/facette.pdf,
	  doc/NOYAU/Base/Gradrc/Images/support.fig,
	  doc/NOYAU/Base/Gradrc/Images/support.pdf,
	  doc/NOYAU/Base/Gradrc/disc.tex, doc/NOYAU/Base/Gradrc/fonc.tex,
	  doc/NOYAU/Base/Gradrc/mioe.tex, doc/NOYAU/Base/Inimas,
	  doc/NOYAU/Base/Inimas/Images,
	  doc/NOYAU/Base/Inimas/Images/facebord.fig,
	  doc/NOYAU/Base/Inimas/Images/facebord.pdf,
	  doc/NOYAU/Base/Inimas/Images/facette.fig,
	  doc/NOYAU/Base/Inimas/Images/facette.pdf,
	  doc/NOYAU/Base/Inimas/disc.tex, doc/NOYAU/Base/Inimas/fonc.tex,
	  doc/NOYAU/Base/Inimas/mioe.tex, doc/NOYAU/Base/Introd,
	  doc/NOYAU/Base/Introd/Images,
	  doc/NOYAU/Base/Introd/Images/facebord.fig,
	  doc/NOYAU/Base/Introd/Images/facebord.pdf,
	  doc/NOYAU/Base/Introd/Images/facette.fig,
	  doc/NOYAU/Base/Introd/Images/facette.pdf,
	  doc/NOYAU/Base/Introd/disc.tex, doc/NOYAU/Base/Introd/fonc.save,
	  doc/NOYAU/Base/Introd/fonc.tex,
	  doc/NOYAU/Base/Introd/fonc.tex.last,
	  doc/NOYAU/Base/Introd/mioe.tex, doc/NOYAU/Base/Itrmas,
	  doc/NOYAU/Base/Itrmas/Images,
	  doc/NOYAU/Base/Itrmas/Images/facebord.fig,
	  doc/NOYAU/Base/Itrmas/Images/facebord.pdf,
	  doc/NOYAU/Base/Itrmas/Images/facette.fig,
	  doc/NOYAU/Base/Itrmas/Images/facette.pdf,
	  doc/NOYAU/Base/Itrmas/disc.tex, doc/NOYAU/Base/Itrmas/fonc.tex,
	  doc/NOYAU/Base/Itrmas/mioe.tex, doc/NOYAU/Base/Matrix,
	  doc/NOYAU/Base/Matrix/Images,
	  doc/NOYAU/Base/Matrix/Images/facebord.fig,
	  doc/NOYAU/Base/Matrix/Images/facebord.pdf,
	  doc/NOYAU/Base/Matrix/Images/facette.fig,
	  doc/NOYAU/Base/Matrix/Images/facette.pdf,
	  doc/NOYAU/Base/Matrix/Images/support.fig,
	  doc/NOYAU/Base/Matrix/Images/support.pdf,
	  doc/NOYAU/Base/Matrix/disc.tex, doc/NOYAU/Base/Matrix/fonc.tex,
	  doc/NOYAU/Base/Matrix/mioe.tex, doc/NOYAU/Base/Navsto,
	  doc/NOYAU/Base/Navsto/Images,
	  doc/NOYAU/Base/Navsto/Images/facebord.fig,
	  doc/NOYAU/Base/Navsto/Images/facebord.pdf,
	  doc/NOYAU/Base/Navsto/Images/facette.fig,
	  doc/NOYAU/Base/Navsto/Images/facette.pdf,
	  doc/NOYAU/Base/Navsto/disc.tex, doc/NOYAU/Base/Navsto/fonc.tex,
	  doc/NOYAU/Base/Navsto/mioe.tex, doc/NOYAU/Base/Preduv,
	  doc/NOYAU/Base/Preduv/Images,
	  doc/NOYAU/Base/Preduv/Images/facebord.fig,
	  doc/NOYAU/Base/Preduv/Images/facebord.pdf,
	  doc/NOYAU/Base/Preduv/Images/facette.fig,
	  doc/NOYAU/Base/Preduv/Images/facette.pdf,
	  doc/NOYAU/Base/Preduv/Images/support.fig,
	  doc/NOYAU/Base/Preduv/Images/support.pdf,
	  doc/NOYAU/Base/Preduv/disc.tex, doc/NOYAU/Base/Preduv/fonc.tex,
	  doc/NOYAU/Base/Preduv/mioe.tex, doc/NOYAU/Base/Recvmc,
	  doc/NOYAU/Base/Recvmc/disc.tex, doc/NOYAU/Base/Recvmc/fonc.tex,
	  doc/NOYAU/Base/Recvmc/mioe.tex, doc/NOYAU/Base/Resolp,
	  doc/NOYAU/Base/Resolp/disc.tex, doc/NOYAU/Base/Resolp/fonc.tex,
	  doc/NOYAU/Base/Resolp/mioe.tex, doc/NOYAU/Base/Turbke,
	  doc/NOYAU/Base/Turbke/disc.tex, doc/NOYAU/Base/Turbke/fonc.tex,
	  doc/NOYAU/Base/Turbke/mioe.tex, doc/NOYAU/Base/Turrij,
	  doc/NOYAU/Base/Turrij/disc.tex, doc/NOYAU/Base/Turrij/fonc.tex,
	  doc/NOYAU/Base/Turrij/mioe.tex, doc/NOYAU/Base/Viscfa,
	  doc/NOYAU/Base/Viscfa/Images,
	  doc/NOYAU/Base/Viscfa/Images/facebord.fig,
	  doc/NOYAU/Base/Viscfa/Images/facebord.pdf,
	  doc/NOYAU/Base/Viscfa/Images/facette.fig,
	  doc/NOYAU/Base/Viscfa/Images/facette.pdf,
	  doc/NOYAU/Base/Viscfa/Images/support.fig,
	  doc/NOYAU/Base/Viscfa/Images/support.pdf,
	  doc/NOYAU/Base/Viscfa/disc.tex, doc/NOYAU/Base/Viscfa/fonc.tex,
	  doc/NOYAU/Base/Viscfa/mioe.tex, doc/NOYAU/Base/Visort,
	  doc/NOYAU/Base/Visort/Images,
	  doc/NOYAU/Base/Visort/Images/facebord.fig,
	  doc/NOYAU/Base/Visort/Images/facebord.pdf,
	  doc/NOYAU/Base/Visort/Images/facette.fig,
	  doc/NOYAU/Base/Visort/Images/facette.pdf,
	  doc/NOYAU/Base/Visort/Images/support.fig,
	  doc/NOYAU/Base/Visort/Images/support.pdf,
	  doc/NOYAU/Base/Visort/disc.tex, doc/NOYAU/Base/Visort/fonc.tex,
	  doc/NOYAU/Base/Visort/mioe.tex, doc/NOYAU/Base/Vissec,
	  doc/NOYAU/Base/Vissec/Images,
	  doc/NOYAU/Base/Vissec/Images/facebord.fig,
	  doc/NOYAU/Base/Vissec/Images/facebord.pdf,
	  doc/NOYAU/Base/Vissec/Images/facette.fig,
	  doc/NOYAU/Base/Vissec/Images/facette.pdf,
	  doc/NOYAU/Base/Vissec/Images/support.fig,
	  doc/NOYAU/Base/Vissec/Images/support.pdf,
	  doc/NOYAU/Base/Vissec/disc.tex, doc/NOYAU/Base/Vissec/fonc.tex,
	  doc/NOYAU/Base/Vissec/mioe.tex, doc/NOYAU/Base/Vortex,
	  doc/NOYAU/Base/Vortex/Images,
	  doc/NOYAU/Base/Vortex/Images/condlimite.fig,
	  doc/NOYAU/Base/Vortex/Images/condlimite.fig.bak,
	  doc/NOYAU/Base/Vortex/Images/condlimite.pdf,
	  doc/NOYAU/Base/Vortex/Images/entree.fig,
	  doc/NOYAU/Base/Vortex/Images/entree.fig.bak,
	  doc/NOYAU/Base/Vortex/Images/entree.pdf,
	  doc/NOYAU/Base/Vortex/disc.tex, doc/NOYAU/Base/Vortex/fonc.tex,
	  doc/NOYAU/Base/Vortex/mioe.tex, doc/NOYAU/Cfbl,
	  doc/NOYAU/Cfbl/Cfbase, doc/NOYAU/Cfbl/Cfbase/Images,
	  doc/NOYAU/Cfbl/Cfbase/Images/facebord.fig,
	  doc/NOYAU/Cfbl/Cfbase/Images/facebord.pdf,
	  doc/NOYAU/Cfbl/Cfbase/Images/facette.fig,
	  doc/NOYAU/Cfbl/Cfbase/Images/facette.pdf,
	  doc/NOYAU/Cfbl/Cfbase/disc.tex, doc/NOYAU/Cfbl/Cfbase/fonc.tex,
	  doc/NOYAU/Cfbl/Cfbase/mioe.tex, doc/NOYAU/Cfbl/Cfener,
	  doc/NOYAU/Cfbl/Cfener/Images,
	  doc/NOYAU/Cfbl/Cfener/Images/domaine1d.fig,
	  doc/NOYAU/Cfbl/Cfener/Images/domaine1d.pdf,
	  doc/NOYAU/Cfbl/Cfener/disc.tex, doc/NOYAU/Cfbl/Cfener/fonc.tex,
	  doc/NOYAU/Cfbl/Cfener/fonc.tex.sav,
	  doc/NOYAU/Cfbl/Cfener/mioe.tex, doc/NOYAU/Cfbl/Cfmsvl,
	  doc/NOYAU/Cfbl/Cfmsvl/Images,
	  doc/NOYAU/Cfbl/Cfmsvl/Images/domaine1d.fig,
	  doc/NOYAU/Cfbl/Cfmsvl/Images/domaine1d.pdf,
	  doc/NOYAU/Cfbl/Cfmsvl/disc.tex, doc/NOYAU/Cfbl/Cfmsvl/fonc.tex,
	  doc/NOYAU/Cfbl/Cfmsvl/mioe.tex, doc/NOYAU/Cfbl/Cfqdmv,
	  doc/NOYAU/Cfbl/Cfqdmv/Images,
	  doc/NOYAU/Cfbl/Cfqdmv/Images/domaine1d.fig,
	  doc/NOYAU/Cfbl/Cfqdmv/Images/domaine1d.pdf,
	  doc/NOYAU/Cfbl/Cfqdmv/disc.tex, doc/NOYAU/Cfbl/Cfqdmv/fonc.tex,
	  doc/NOYAU/Cfbl/Cfqdmv/fonc.tex.sav,
	  doc/NOYAU/Cfbl/Cfqdmv/mioe.tex, doc/NOYAU/Cfbl/Cfxtcl,
	  doc/NOYAU/Cfbl/Cfxtcl/Images,
	  doc/NOYAU/Cfbl/Cfxtcl/Images/fluxbord.fig,
	  doc/NOYAU/Cfbl/Cfxtcl/Images/fluxbord.pdf,
	  doc/NOYAU/Cfbl/Cfxtcl/disc.tex, doc/NOYAU/Cfbl/Cfxtcl/fonc.tex,
	  doc/NOYAU/Cfbl/Cfxtcl/mioe.tex, doc/NOYAU/Combustion,
	  doc/NOYAU/Combustion/fonc.tex, doc/NOYAU/Elec,
	  doc/NOYAU/Elec/Elbase, doc/NOYAU/Elec/Elbase/Images,
	  doc/NOYAU/Elec/Elbase/Images/facebord.fig,
	  doc/NOYAU/Elec/Elbase/Images/facebord.pdf,
	  doc/NOYAU/Elec/Elbase/Images/facette.fig,
	  doc/NOYAU/Elec/Elbase/Images/facette.pdf,
	  doc/NOYAU/Elec/Elbase/disc.tex, doc/NOYAU/Elec/Elbase/fonc.tex,
	  doc/NOYAU/Elec/Elbase/mioe.tex, doc/NOYAU/LaTeX,
	  doc/NOYAU/LaTeX/logoedf.pdf, doc/NOYAU/LaTeX/noteEDF.sty,
	  doc/NOYAU/LaTeX/noyau.tex, doc/NOYAU/LaTeX/synthese.tex,
	  doc/UTILISATION, doc/UTILISATION/Makefile,
	  doc/UTILISATION/graphics, doc/UTILISATION/graphics/Makefile,
	  doc/UTILISATION/graphics/halo.eps,
	  doc/UTILISATION/graphics/halo.pdf,
	  doc/UTILISATION/graphics/vortex.fig,
	  doc/UTILISATION/graphics/vortex.fig.bak,
	  doc/UTILISATION/graphics/vortex.pdf, doc/UTILISATION/input,
	  doc/UTILISATION/input/Makefile,
	  doc/UTILISATION/input/addstudy.xml,
	  doc/UTILISATION/input/autovalid.xml,
	  doc/UTILISATION/input/logoedf.eps,
	  doc/UTILISATION/input/logoedf.pdf, doc/UTILISATION/latex,
	  doc/UTILISATION/latex/Makefile,
	  doc/UTILISATION/latex/a1_autovalid.tex,
	  doc/UTILISATION/latex/ale.tex, doc/UTILISATION/latex/biblio.tex,
	  doc/UTILISATION/latex/monindex.ist,
	  doc/UTILISATION/latex/noteEDF.sty,
	  doc/UTILISATION/latex/saturne.tex,
	  doc/UTILISATION/latex/saturne1.tex,
	  doc/UTILISATION/latex/saturne2.tex,
	  doc/UTILISATION/latex/synthese.tex, doc/UTILISATION/readme,
	  include, include/base, include/base/albase.h,
	  include/base/alstru.h, include/base/cs_ale.h,
	  include/base/cs_base.h, include/base/cs_benchmark.h,
	  include/base/cs_blas.h, include/base/cs_comm.h,
	  include/base/cs_couplage.h, include/base/cs_ecs_messages.h,
	  include/base/cs_ext_neighborhood.h, include/base/cs_gradient.h,
	  include/base/cs_gui.h, include/base/cs_gui_matisse.h,
	  include/base/cs_gui_radiative_transfer.h,
	  include/base/cs_gui_util.h, include/base/cs_halo.h,
	  include/base/cs_matrix.h, include/base/cs_mesh.h,
	  include/base/cs_mesh_coherency.h, include/base/cs_mesh_connect.h,
	  include/base/cs_mesh_quality.h,
	  include/base/cs_mesh_quantities.h, include/base/cs_mesh_select.h,
	  include/base/cs_mesh_solcom.h, include/base/cs_mesh_warping.h,
	  include/base/cs_opts.h, include/base/cs_parall.h,
	  include/base/cs_perio.h, include/base/cs_post.h,
	  include/base/cs_pp_io.h, include/base/cs_prototypes.h,
	  include/base/cs_renumber.h, include/base/cs_selector.h,
	  include/base/cs_sles.h, include/base/cs_suite.h,
	  include/base/cs_syr_coupling.h, include/base/cs_syr_messages.h,
	  include/base/cs_tpar1d.h, include/base/cs_ventil.h,
	  include/base/cstnum.h, include/base/cstphy.h,
	  include/base/dimens.h, include/base/dimfbr.h,
	  include/base/entsor.h, include/base/ihmpre.h,
	  include/base/memoir.h, include/base/mltgrd.h,
	  include/base/numvar.h, include/base/optcal.h,
	  include/base/parall.h, include/base/paramx.h,
	  include/base/period.h, include/base/pointe.h,
	  include/base/tcpumx.h, include/base/tremai.h,
	  include/base/vector.h, include/base/vortex.h, include/cfbl,
	  include/cfbl/cfpoin.h, include/cogz, include/cogz/coincl.h,
	  include/cplv, include/cplv/cpincl.h, include/elec,
	  include/elec/elincl.h, include/fuel, include/fuel/fuincl.h,
	  include/lagr, include/lagr/cs_lagr_perio.h,
	  include/lagr/cs_lagrang.h, include/lagr/lagdim.h,
	  include/lagr/lagpar.h, include/lagr/lagran.h, include/mati,
	  include/mati/matiss.h, include/pprt, include/pprt/ppincl.h,
	  include/pprt/ppppar.h, include/pprt/ppthch.h, include/rayt,
	  include/rayt/radiat.h, src, src/base, src/base/alelap.F,
	  src/base/alemaj.F, src/base/altycl.F, src/base/armtps.F,
	  src/base/bilsc2.F, src/base/calgeo.F, src/base/calgrg.F,
	  src/base/calhyd.F, src/base/calmom.F, src/base/caltri.F,
	  src/base/catsma.F, src/base/causta.F, src/base/cgstab.F,
	  src/base/clca66.F, src/base/cldijp.F, src/base/cldipo.F,
	  src/base/clipke.F, src/base/clmlga.F, src/base/clprij.F,
	  src/base/clpsca.F, src/base/clptrg.F, src/base/clptur.F,
	  src/base/clpv2f.F, src/base/clsurn.F, src/base/clsyvt.F,
	  src/base/clvolc.F, src/base/codits.F, src/base/condli.F,
	  src/base/cou1di.F, src/base/cou1do.F, src/base/coupbi.F,
	  src/base/coupbo.F, src/base/covofi.F, src/base/cregeo.F,
	  src/base/cs_ale.c, src/base/cs_base.c, src/base/cs_benchmark.c,
	  src/base/cs_blas.c, src/base/cs_comm.c, src/base/cs_couplage.c,
	  src/base/cs_ecs_messages.c, src/base/cs_ext_neighborhood.c,
	  src/base/cs_gradient.c, src/base/cs_gui.c,
	  src/base/cs_gui_matisse.c, src/base/cs_gui_radiative_transfer.c,
	  src/base/cs_gui_util.c, src/base/cs_halo.c,
	  src/base/cs_interpr_util.F, src/base/cs_main.c,
	  src/base/cs_matrix.c, src/base/cs_mesh.c,
	  src/base/cs_mesh_coherency.c, src/base/cs_mesh_connect.c,
	  src/base/cs_mesh_quality.c, src/base/cs_mesh_quantities.c,
	  src/base/cs_mesh_select.c, src/base/cs_mesh_solcom.c,
	  src/base/cs_mesh_warping.c, src/base/cs_opts.c,
	  src/base/cs_parall.c, src/base/cs_perio.c, src/base/cs_post.c,
	  src/base/cs_post_util.F, src/base/cs_pp_io.c,
	  src/base/cs_renumber.c, src/base/cs_selector.c,
	  src/base/cs_sles.c, src/base/cs_suite.c,
	  src/base/cs_syr_coupling.c, src/base/cs_syr_messages.c,
	  src/base/cs_tpar1d.c, src/base/cs_ventil.c, src/base/csclli.F,
	  src/base/csflsh.F, src/base/csinit.F, src/base/csprnt.F,
	  src/base/cycmgr.F, src/base/distpr.F, src/base/distyp.F,
	  src/base/divmas.F, src/base/divrij.F, src/base/dttvar.F,
	  src/base/dvvpst.F, src/base/ecrava.F, src/base/ecrhis.F,
	  src/base/ecrlis.F, src/base/findpt.F, src/base/gradco.F,
	  src/base/gradmc.F, src/base/gradrc.F, src/base/grdcel.F,
	  src/base/haltyp.F, src/base/hturbp.F, src/base/iasize.F,
	  src/base/idrbla.F, src/base/impini.F, src/base/iniini.F,
	  src/base/inimas.F, src/base/inipst.F, src/base/initi1.F,
	  src/base/initi2.F, src/base/iniusi.F, src/base/iniva0.F,
	  src/base/inivar.F, src/base/invers.F, src/base/iprbla.F,
	  src/base/itrgrp.F, src/base/itrmas.F, src/base/jacobi.F,
	  src/base/lecamo.F, src/base/lecamp.F, src/base/lecamx.F,
	  src/base/ledgeo.F, src/base/letgeo.F, src/base/majgeo.F,
	  src/base/matrdt.F, src/base/matrix.F, src/base/memale.F,
	  src/base/memcbr.F, src/base/memclg.F, src/base/memcli.F,
	  src/base/memdis.F, src/base/memdtv.F, src/base/memdyp.F,
	  src/base/memgrg.F, src/base/memini.F, src/base/memkep.F,
	  src/base/memkom.F, src/base/memnav.F, src/base/mempdc.F,
	  src/base/mempgr.F, src/base/memphy.F, src/base/memrij.F,
	  src/base/memsca.F, src/base/memt1d.F, src/base/memtri.F,
	  src/base/memtsm.F, src/base/memv2f.F, src/base/memvor.F,
	  src/base/modini.F, src/base/modpar.F, src/base/navsto.F,
	  src/base/newmrk.F, src/base/numvec.F, src/base/ordita.F,
	  src/base/parge1.F, src/base/pergra.F, src/base/perinr.F,
	  src/base/perinu.F, src/base/phyvar.F, src/base/postlc.F,
	  src/base/prcpol.F, src/base/precli.F, src/base/preduv.F,
	  src/base/premgr.F, src/base/prmoy0.F, src/base/prods2.F,
	  src/base/prods3.F, src/base/prodsc.F, src/base/projts.F,
	  src/base/prolon.F, src/base/promav.F, src/base/proxav.F,
	  src/base/rasize.F, src/base/recvmc.F, src/base/reseps.F,
	  src/base/resmgr.F, src/base/resolp.F, src/base/resrij.F,
	  src/base/resssg.F, src/base/resv2f.F, src/base/rijech.F,
	  src/base/rijthe.F, src/base/scalai.F, src/base/schtmp.F,
	  src/base/stdtcl.F, src/base/strdep.F, src/base/strhis.F,
	  src/base/strini.F, src/base/strpre.F, src/base/tcpumx.c,
	  src/base/tdesi1.F, src/base/testel.F, src/base/tremai.c,
	  src/base/tridim.F, src/base/tsepdc.F, src/base/turbke.F,
	  src/base/turbkw.F, src/base/turent.F, src/base/turrij.F,
	  src/base/typecl.F, src/base/undscr.F, src/base/vandri.F,
	  src/base/varpos.F, src/base/vectds.F, src/base/vericl.F,
	  src/base/verini.F, src/base/verlon.F, src/base/vert1d.F,
	  src/base/viscfa.F, src/base/visdyn.F, src/base/vislmg.F,
	  src/base/visort.F, src/base/vissec.F, src/base/vissma.F,
	  src/base/vissst.F, src/base/vor2cl.F, src/base/vordep.F,
	  src/base/vorimp.F, src/base/vorin0.F, src/base/vorini.F,
	  src/base/vorlgv.F, src/base/vorpre.F, src/base/vortex.F,
	  src/base/vorver.F, src/base/vorvit.F, src/base/zufall.F,
	  src/cfbl, src/cfbl/cfbsc2.F, src/cfbl/cfbsc3.F,
	  src/cfbl/cfcdts.F, src/cfbl/cfdivs.F, src/cfbl/cfdttv.F,
	  src/cfbl/cfener.F, src/cfbl/cfini1.F, src/cfbl/cfiniv.F,
	  src/cfbl/cfmsfl.F, src/cfbl/cfmsgs.F, src/cfbl/cfmsvl.F,
	  src/cfbl/cfmsvs.F, src/cfbl/cfphyv.F, src/cfbl/cfprop.F,
	  src/cfbl/cfqdmv.F, src/cfbl/cfrusb.F, src/cfbl/cfvarp.F,
	  src/cfbl/cfxtcl.F, src/cfbl/memcfe.F, src/cfbl/memcfm.F,
	  src/cfbl/memcft.F, src/cfbl/memcfv.F, src/cogz,
	  src/cogz/coini1.F, src/cogz/colecd.F, src/cogz/coprop.F,
	  src/cogz/cothht.F, src/cogz/covarp.F, src/cogz/d3phst.F,
	  src/cogz/d3pini.F, src/cogz/d3pint.F, src/cogz/d3pphy.F,
	  src/cogz/d3ptcl.F, src/cogz/d3pver.F, src/cogz/ebuini.F,
	  src/cogz/ebuphy.F, src/cogz/ebutcl.F, src/cogz/ebutss.F,
	  src/cogz/ebuver.F, src/cogz/lwcgfu.F, src/cogz/lwcini.F,
	  src/cogz/lwcphy.F, src/cogz/lwctcl.F, src/cogz/lwctss.F,
	  src/cogz/lwcurl.F, src/cogz/lwcver.F, src/cogz/pdflwc.F,
	  src/cogz/pdfpp3.F, src/cogz/pdfpp4.F, src/cplv,
	  src/cplv/cpcym1.F, src/cplv/cpcym2.F, src/cplv/cpflux.F,
	  src/cplv/cpini1.F, src/cplv/cpiniv.F, src/cplv/cplecd.F,
	  src/cplv/cplin1.F, src/cplv/cplini.F, src/cplv/cplph1.F,
	  src/cplv/cplphy.F, src/cplv/cplpro.F, src/cplv/cpltcl.F,
	  src/cplv/cpltss.F, src/cplv/cpltsv.F, src/cplv/cplvar.F,
	  src/cplv/cplver.F, src/cplv/cplym1.F, src/cplv/cppdf4.F,
	  src/cplv/cppdf5.F, src/cplv/cppdfr.F, src/cplv/cpphy1.F,
	  src/cplv/cpphy2.F, src/cplv/cpphyv.F, src/cplv/cpprop.F,
	  src/cplv/cpptcl.F, src/cplv/cprays.F, src/cplv/cpteh1.F,
	  src/cplv/cpteh2.F, src/cplv/cptehm.F, src/cplv/cpthp1.F,
	  src/cplv/cpthp2.F, src/cplv/cptssc.F, src/cplv/cptsvc.F,
	  src/cplv/cptsvi.F, src/cplv/cpvarp.F, src/cplv/cpveri.F,
	  src/cplv/memcp1.F, src/elec, src/elec/elflux.F,
	  src/elec/elini1.F, src/elec/eliniv.F, src/elec/ellecd.F,
	  src/elec/elphyv.F, src/elec/elprop.F, src/elec/elthht.F,
	  src/elec/eltssc.F, src/elec/elvarp.F, src/elec/elveri.F,
	  src/fuel, src/fuel/fucym1.F, src/fuel/fuflux.F,
	  src/fuel/fuini1.F, src/fuel/fuiniv.F, src/fuel/fulecd.F,
	  src/fuel/fupdfr.F, src/fuel/fuphy1.F, src/fuel/fuphy2.F,
	  src/fuel/fuphyv.F, src/fuel/fuprop.F, src/fuel/fuptcl.F,
	  src/fuel/futeh1.F, src/fuel/futeh2.F, src/fuel/futhp1.F,
	  src/fuel/futhp2.F, src/fuel/futssc.F, src/fuel/futsvc.F,
	  src/fuel/futsvi.F, src/fuel/fuvarp.F, src/fuel/fuveri.F,
	  src/fuel/memfu1.F, src/lagr, src/lagr/cs_lagr_perio.c,
	  src/lagr/cs_lagrang.c, src/lagr/diverv.F, src/lagr/enslag.F,
	  src/lagr/enswaf.F, src/lagr/lagaff.F, src/lagr/lagcar.F,
	  src/lagr/lagcel.F, src/lagr/lagcou.F, src/lagr/lagdeb.F,
	  src/lagr/lageli.F, src/lagr/lagent.F, src/lagr/lageqp.F,
	  src/lagr/lagerr.F, src/lagr/lages1.F, src/lagr/lages2.F,
	  src/lagr/lagesp.F, src/lagr/lagfch.F, src/lagr/laggra.F,
	  src/lagr/laghis.F, src/lagr/lagich.F, src/lagr/lagidp.F,
	  src/lagr/lagimp.F, src/lagr/lagini.F, src/lagr/lagipn.F,
	  src/lagr/lagitf.F, src/lagr/lagitg.F, src/lagr/lagitp.F,
	  src/lagr/laglec.F, src/lagr/laglis.F, src/lagr/lagnew.F,
	  src/lagr/lagnpr.F, src/lagr/lagnwc.F, src/lagr/lagopt.F,
	  src/lagr/lagout.F, src/lagr/lagphy.F, src/lagr/lagpoi.F,
	  src/lagr/lagrus.F, src/lagr/lagsta.F, src/lagr/lagstf.F,
	  src/lagr/lagtri.F, src/lagr/lagune.F, src/lagr/memla1.F,
	  src/lagr/memla2.F, src/lagr/ouestu.F, src/mati,
	  src/mati/memmat.F, src/mati/mtimpi.F, src/mati/mtini1.F,
	  src/mati/mtkpdc.F, src/mati/mtphyv.F, src/mati/mtproj.F,
	  src/mati/mttsns.F, src/mati/mttssc.F, src/mati/mttycl.F,
	  src/pprt, src/pprt/ppcabs.F, src/pprt/ppclim.F,
	  src/pprt/ppcsca.F, src/pprt/ppini1.F, src/pprt/ppinii.F,
	  src/pprt/ppiniv.F, src/pprt/pplecd.F, src/pprt/pppdfr.F,
	  src/pprt/ppphyv.F, src/pprt/ppprcl.F, src/pprt/ppprop.F,
	  src/pprt/ppray4.F, src/pprt/pptbht.F, src/pprt/pptssc.F,
	  src/pprt/pptycl.F, src/pprt/ppvarp.F, src/rayt,
	  src/rayt/memra1.F, src/rayt/memra2.F, src/rayt/memra3.F,
	  src/rayt/raybrd.F, src/rayt/raycli.F, src/rayt/raydak.F,
	  src/rayt/raydir.F, src/rayt/raydom.F, src/rayt/rayens.F,
	  src/rayt/raylec.F, src/rayt/rayopt.F, src/rayt/rayout.F,
	  src/rayt/raypar.F, src/rayt/raypun.F, src/rayt/raysca.F,
	  src/rayt/raysol.F, src/rayt/rmodak.F, users, users/base,
	  users/base/usalcl.F, users/base/usalin.F, users/base/usclim.F,
	  users/base/usdpst.F, users/base/ushist.F, users/base/usini1.F,
	  users/base/usiniv.F, users/base/uskpdc.F, users/base/usmodg.F,
	  users/base/usmpst.F, users/base/usnpst.F, users/base/usphyv.F,
	  users/base/usproj.F, users/base/uspt1d.F, users/base/usrubm.F,
	  users/base/usruet.F, users/base/ussmag.F, users/base/usstru.F,
	  users/base/ustbus.F, users/base/usthht.F, users/base/ustske.F,
	  users/base/ustskw.F, users/base/ustsma.F, users/base/ustsns.F,
	  users/base/ustsri.F, users/base/ustssc.F, users/base/ustsv2.F,
	  users/base/usvima.F, users/base/usvist.F, users/base/usvort.F,
	  users/base/usvpst.F, users/cfbl, users/cfbl/uscfcl.F,
	  users/cfbl/uscfpv.F, users/cfbl/uscfth.F, users/cfbl/uscfx1.F,
	  users/cfbl/uscfx2.F, users/cfbl/uscfxi.F, users/cogz,
	  users/cogz/usd3p1.F, users/cogz/usd3pc.F, users/cogz/usd3pi.F,
	  users/cogz/usebu1.F, users/cogz/usebuc.F, users/cogz/usebui.F,
	  users/cogz/uslwc1.F, users/cogz/uslwcc.F, users/cogz/uslwci.F,
	  users/cplv, users/cplv/uscpcl.F, users/cplv/uscpi1.F,
	  users/cplv/uscpiv.F, users/cplv/uscpl1.F, users/cplv/uscplc.F,
	  users/elec, users/elec/uselcl.F, users/elec/uselen.F,
	  users/elec/useli1.F, users/elec/useliv.F, users/elec/uselph.F,
	  users/elec/uselrc.F, users/elec/usetcl.F, users/fuel,
	  users/fuel/usfucl.F, users/fuel/usfui1.F, users/fuel/usfuiv.F,
	  users/lagr, users/lagr/uslabo.F, users/lagr/usladp.F,
	  users/lagr/uslaed.F, users/lagr/uslaen.F, users/lagr/uslafe.F,
	  users/lagr/uslag1.F, users/lagr/uslag2.F, users/lagr/uslain.F,
	  users/lagr/uslapr.F, users/lagr/uslaru.F, users/lagr/uslast.F,
	  users/lagr/uslatc.F, users/lagr/uslatp.F, users/pprt,
	  users/pprt/usppmo.F, users/rayt, users/rayt/usray1.F,
	  users/rayt/usray2.F, users/rayt/usray3.F, users/rayt/usray4.F,
	  users/rayt/usray5.F: Change in the location of the definition of
	  NIDEVE, NRDEVE, NITUSE and NRTUSE Modification of ALE
	  initialisation step for better continuity in calculation sequels.
	  Minor bug corrections in GUI reader and periodicity

