2008-11-28 15:35  Code_Saturne development team <saturne-support@edf.fr>

	* [r668] ChangeLog: Release of Code_Saturne version 1.4.0

2008-11-28 15:21  Code_Saturne development team <saturne-support@edf.fr>

	* [r665] ChangeLog, include/base/alaste.h,
	  include/base/cs_ast_coupling.h, include/base/paramx.h, po/fr.po,
	  src/base/cs_ast_coupling.c, src/base/ecrava.F, src/base/iniini.F,
	  src/base/lecamx.F, src/base/strdep.F, src/base/strini.F,
	  src/base/strpre.F, src/base/tridim.F, users/base/usaste.F: First
	  integration of the Code_Aster coupling capability. Not yet
	  tested! Not ye compatible with parallelism.

2008-11-28 13:15  Code_Saturne development team <saturne-support@edf.fr>

	* [r664] src/ctwr/cs_ctwr_halo.c: Add missing header.

2008-11-28 13:00  Code_Saturne development team <saturne-support@edf.fr>

	* [r663] ChangeLog, src/base/tridim.F: Correction on a wrong test
	  for boundary conditions settings with specific physics.

2008-11-28 11:26  Code_Saturne development team <saturne-support@edf.fr>

	* [r662] ChangeLog, include/ctwr/cs_ctwr.h,
	  include/ctwr/cs_ctwr_air_props.h, include/ctwr/cs_ctwr_halo.h,
	  src/base/cregeo.F, src/base/cs_main.c, src/ctwr/cs_ctwr.c,
	  src/ctwr/cs_ctwr_air_props.c, src/ctwr/cs_ctwr_halo.c,
	  src/ctwr/ctphyv.F, users/ctwr/usctdz.F, users/pprt/usppmo.F:
	  Complete the cooling towers feature. Still not complet and no
	  restarting or parallelism.

2008-11-28 11:21  Code_Saturne development team <saturne-support@edf.fr>

	* [r661] ChangeLog, src/base/scalai.F, src/pprt/ppinv2.F: Add a
	  second routine for a second pass of initialization when modelling
	  gas combustion in order to avoid mis-understanding of "variable
	  initialization"...

2008-11-28 10:26  Code_Saturne development team <saturne-support@edf.fr>

	* [r660] bin/Makefile: Add ATMO header installation in Makefile.

2008-11-28 08:55  Code_Saturne development team <saturne-support@edf.fr>

	* [r659] src/base/cregeo.F: Corrected comment.

2008-11-28 08:54  Code_Saturne development team <saturne-support@edf.fr>

	* [r658] ChangeLog, src/base/caltri.F, src/base/cregeo.F: Add the
	  cstphy.h header in cregeo.F in order to ease the cooling towers
	  integration.

2008-11-27 18:00  Code_Saturne development team <saturne-support@edf.fr>

	* [r657] COMPATIBILITY, ChangeLog, bin/Makefile, bin/cs_create,
	  bin/cs_profile, doc/style/csdoc.sty,
	  extras/validation/autovalid.xml, include/base/cs_base.h: Increase
	  Code_Saturne version number to 1.4.0

2008-11-27 11:57  Code_Saturne development team <saturne-support@edf.fr>

	* [r656] ChangeLog, bin/SaturneGUI: Remove the splash screen at the
	  GUI launch.

2008-11-27 11:49  Code_Saturne development team <saturne-support@edf.fr>

	* [r654] ChangeLog, QUALITY_ASSURANCE: Add a QUALITY_ASSURANCE file
	  which precises if the current version of Code_Saturne is
	  validated under EDF quality assurance.

2008-11-26 18:18  Code_Saturne development team <saturne-support@edf.fr>

	* [r653] ChangeLog, bin/Makefile, include/base/cs_gui.h,
	  include/base/entsor.h, include/ctwr/ctincl.h,
	  include/pprt/ppincl.h, po/fr.po, sbin/install, src/base/cs_gui.c,
	  src/base/cs_post.c, src/base/haltyp.F, src/base/iniini.F,
	  src/base/inipst.F, src/base/iniusi.F, src/base/varpos.F,
	  src/ctwr/ctini1.F, src/ctwr/ctiniv.F, src/ctwr/ctphyv.F,
	  src/ctwr/cttssc.F, src/ctwr/ctvarp.F, src/pprt/ppclim.F,
	  src/pprt/ppcsca.F, src/pprt/ppini1.F, src/pprt/ppiniv.F,
	  src/pprt/ppphyv.F, src/pprt/ppprcl.F, src/pprt/pptssc.F,
	  src/pprt/ppvarp.F, users/ctwr/usctcl.F, users/ctwr/uscti1.F,
	  users/ctwr/usctiv.F, users/pprt/usppmo.F: Add stubs for cooling
	  towers subroutines and preparation of the cooling towers
	  modelling integration.

2008-11-26 16:24  Code_Saturne development team <saturne-support@edf.fr>

	* [r652] ChangeLog, src/rayt/rayopt.F: Replace a test by an
	  equivalent but simpler one.

2008-11-26 16:23  Code_Saturne development team <saturne-support@edf.fr>

	* [r651] src/base/cs_calcium.c: Comments improvement.

2008-11-26 16:08  Code_Saturne development team <saturne-support@edf.fr>

	* [r650] src/atmo/atini1.F, src/atmo/atiniv.F, src/atmo/atlecm.F,
	  src/atmo/intprf.F, src/atmo/mematm.F, src/base/cs_syr_util.F,
	  src/pprt/memppt.F: Remove Code_Saturne version number.

2008-11-26 10:22  Code_Saturne development team <saturne-support@edf.fr>

	* [r649] ChangeLog, src/atmo/attycl.F, users/atmo/usatcl.F: Change
	  the behaviour of the boundary conditions handling for the
	  atmospheric module (let the user change the type of boundary
	  condition even when a meteo profile file is read).

2008-11-26 09:52  Code_Saturne development team <saturne-support@edf.fr>

	* [r648] ChangeLog, include/pprt/ppincl.h, src/base/caltri.F,
	  src/base/varpos.F, src/rayt/rayopt.F: Add missing modifications
	  for the atmospheric modelling. Without this patch, the code does
	  not compile.

2008-11-25 19:17  Code_Saturne development team <saturne-support@edf.fr>

	* [r647] AUTHORS, ChangeLog, bin/Makefile, bin/runcase,
	  bin/runcase.help, include/atmo, include/atmo/atincl.h,
	  include/base/cs_gui.h, include/base/entsor.h, sbin/install,
	  src/atmo, src/atmo/atini1.F, src/atmo/atiniv.F,
	  src/atmo/atlecm.F, src/atmo/attycl.F, src/atmo/intprf.F,
	  src/atmo/mematm.F, src/base/cs_gui.c, src/base/iniini.F,
	  src/base/iniusi.F, src/pprt/memppt.F, src/pprt/ppclim.F,
	  src/pprt/ppcsca.F, src/pprt/ppini1.F, src/pprt/ppinii.F,
	  src/pprt/ppiniv.F, src/pprt/ppprcl.F, src/pprt/pptycl.F,
	  users/atmo, users/atmo/usatcl.F, users/atmo/usati1.F,
	  users/atmo/usativ.F, users/pprt/usppmo.F: Integration of the
	  atmospheric flow modelling for neutral atmosphere flows.

2008-11-25 18:51  Code_Saturne development team <saturne-support@edf.fr>

	* [r646] ChangeLog, include/base/cs_gui.h, include/pprt/ppincl.h,
	  src/base/caltri.F, src/base/condli.F, src/base/covofi.F,
	  src/base/cs_gui.c, src/base/impini.F, src/base/inivar.F,
	  src/base/memtri.F, src/base/phyvar.F, src/base/precli.F,
	  src/base/scalai.F, src/base/tridim.F, src/base/varpos.F,
	  src/base/verini.F, src/rayt/raycli.F, src/rayt/raydom.F,
	  src/rayt/rayopt.F, users/rayt/usray1.F, users/rayt/usray3.F: Add
	  a common whose value depends whether the simulation uses a
	  specific physics and if the radiative transfer modelling is
	  enabled with a parametric file or not, preparing for the
	  integration of the atmospheric modelling.

2008-11-25 14:45  Code_Saturne development team <saturne-support@edf.fr>

	* [r645] AUTHORS, ChangeLog: Update AUTHORS file.

2008-11-25 10:51  Code_Saturne development team <saturne-support@edf.fr>

	* [r644] ChangeLog, users/base/usini1.F: Activate the multigrid
	  algorithm for pressure by default.

2008-11-24 18:26  Code_Saturne development team <saturne-support@edf.fr>

	* [r643] ChangeLog, bin/cs_profile: Upgrade to GUI 1.4.d

2008-11-24 18:22  Code_Saturne development team <saturne-support@edf.fr>

	* [r642] ChangeLog, include/base/cs_gui.h, src/base/cs_gui.c,
	  src/base/iniusi.F: Add an option for the multigrid algorithm in
	  the GUI.

2008-11-20 19:05  Code_Saturne development team <saturne-support@edf.fr>

	* [r641] ChangeLog, bin/macros_Linux.mk,
	  bin/macros_Linux_x86_64.mk: Remove the -fbounds-check option
	  (gfortran compiler) as it seems to corrupt the stack.

2008-11-20 17:42  Code_Saturne development team <saturne-support@edf.fr>

	* [r640] ChangeLog, include/base/cs_gui.h, include/base/cs_post.h,
	  include/base/cs_sat_coupling.h, include/base/cs_tpar1d.h,
	  include/base/cs_ventil.h, include/base/entsor.h,
	  include/fuel/fuincl.h, include/mati/matiss.h, po/POTFILES.in,
	  po/fr.po, src/base/cs_gui.c, src/base/cs_gui_matisse.c,
	  src/base/cs_gui_radiative_transfer.c, src/base/cs_gui_util.c,
	  src/base/cs_main.c, src/base/cs_sat_coupling.c,
	  src/base/cs_tpar1d.c, src/base/cs_ventil.c: English translation
	  of most of the missing C sources.

2008-11-19 11:01  Code_Saturne development team <saturne-support@edf.fr>

	* [r639] ChangeLog, include/base/cs_couplage.h[DEL],
	  include/base/cs_sat_coupling.h[CPY], src/base/cs_couplage.c[DEL],
	  src/base/cs_main.c, src/base/cs_opts.c,
	  src/base/cs_sat_coupling.c[CPY]: Rename cs_couplage* sources to
	  cs_sat_coupling*

2008-11-19 10:37  Code_Saturne development team <saturne-support@edf.fr>

	* [r638] po/fr.po, src/base/cs_gui.c: Minor correction in output:
	  face -> cell.

2008-11-17 14:32  Code_Saturne development team <saturne-support@edf.fr>

	* [r637] ChangeLog, po/fr.po, src/base/cs_gui.c: Small correction
	  on some output in cs_gui.c

2008-11-14 14:21  Code_Saturne development team <saturne-support@edf.fr>

	* [r636] bin/cs_create: Updating versio number in the case
	  creation.

2008-11-14 14:20  Code_Saturne development team <saturne-support@edf.fr>

	* [r635] ChangeLog, src/base/cs_multigrid.c: Set the precision on
	  coarsest mesh equal to the one on finest mesh in the multigrid
	  algorithm for better efficiency (and scalability).

2008-11-14 12:51  Code_Saturne development team <saturne-support@edf.fr>

	* [r634] ChangeLog, po/fr.po: Updating french dictionnary.

2008-11-14 12:50  Code_Saturne development team <saturne-support@edf.fr>

	* [r633] ChangeLog, src/base/cs_ecs_messages.c,
	  src/base/cs_ext_neighborhood.c, src/base/cs_mesh.c: Minor
	  corrections and improvements.

2008-11-14 12:29  Code_Saturne development team <saturne-support@edf.fr>

	* [r632] ChangeLog, include/base/cs_mesh_connect.h,
	  include/base/cs_mesh_solcom.h, include/base/cs_prototypes.h,
	  include/base/tcpumx.h, include/base/tremai.h,
	  src/base/cs_mesh_solcom.c, src/base/tcpumx.c, src/base/tremai.c:
	  Reformating comments and english translation.

2008-11-14 12:27  Code_Saturne development team <saturne-support@edf.fr>

	* [r631] ChangeLog, sbin/backup: Add a backup script for
	  developpers.

2008-11-14 09:59  Code_Saturne development team <saturne-support@edf.fr>

	* [r630] src/base/ecrava.F: Replace a wrong continuation character.

2008-11-14 09:56  Code_Saturne development team <saturne-support@edf.fr>

	* [r629] ChangeLog, doc/THEORY/latex/Base/bilsc2.tex,
	  doc/THEORY/latex/Base/clptrg.tex,
	  doc/THEORY/latex/Base/clptur.tex,
	  doc/THEORY/latex/Base/clsyvt.tex,
	  doc/THEORY/latex/Base/condli.tex, doc/THEORY/latex/summary.tex,
	  doc/THEORY/latex/theory.tex, doc/USER/latex/a1_autovalid.tex,
	  doc/USER/latex/saturne1.tex, doc/USER/latex/saturne2.tex: Merge
	  documentation changes form the 1.3 branch (-r 777:778).

2008-11-13 10:41  Code_Saturne development team <saturne-support@edf.fr>

	* [r623] src/base/lecamx.F: Make some lines fit within 72
	  characters.

2008-11-13 10:29  Code_Saturne development team <saturne-support@edf.fr>

	* [r621] bin/runcase: Correction on a string comparison.

2008-11-13 10:08  Code_Saturne development team <saturne-support@edf.fr>

	* [r620] COMPATIBILITY, ChangeLog, bin/Makefile, bin/cs_profile,
	  bin/macros_Blue_Gene_P.mk, doc/THEORY/latex/theory.tex,
	  doc/style/csdoc.sty: Updating Code_Saturne version number to
	  1.4.c and prerequisites.

2008-11-13 10:01  Code_Saturne development team <saturne-support@edf.fr>

	* [r619] ChangeLog, bin/macros_Linux.mk,
	  bin/macros_Linux_x86_64.mk, bin/runcase_syrthes,
	  doc/USER/latex/saturne1.tex: Minor modifications in scripts,
	  macros and docs.

2008-11-13 09:52  Code_Saturne development team <saturne-support@edf.fr>

	* [r618] ChangeLog, src/base/lecamx.F: Correction of the outputs
	  english translation.

2008-11-13 09:51  Code_Saturne development team <saturne-support@edf.fr>

	* [r617] po/fr.po: Bug correction and english translation in the
	  restart file code.

2008-11-13 09:50  Code_Saturne development team <saturne-support@edf.fr>

	* [r616] ChangeLog, include/base/cs_suite.h, src/base/cs_suite.c:
	  Bug correction and english translation in the restart file code.

2008-11-07 19:07  Code_Saturne development team <saturne-support@edf.fr>

	* [r614] ChangeLog, po/fr.po: Updating the french dictionnary.

2008-11-07 18:54  Code_Saturne development team <saturne-support@edf.fr>

	* [r613] ChangeLog, bin/Makefile: Remove the dependency to BLAS in
	  the Fortran dot products because one always provides Fortran
	  wrappers in the C code.

2008-11-07 18:11  Code_Saturne development team <saturne-support@edf.fr>

	* [r612] ChangeLog, src/base/cs_suite.c: Bug correction in the
	  restart file reading.

2008-11-07 18:10  Code_Saturne development team <saturne-support@edf.fr>

	* [r611] ChangeLog, src/base/cs_syr_coupling.c: Bug correction in
	  the SYRTHES coupling initialization.

2008-11-07 18:09  Code_Saturne development team <saturne-support@edf.fr>

	* [r610] ChangeLog, src/base/prods2.F, src/base/prods3.F,
	  src/base/prodsc.F: Remove the dependency to BLAS in the Fortran
	  dot products because one always provides Fortran wrappers in the
	  C code.

2008-11-07 17:10  Code_Saturne development team <saturne-support@edf.fr>

	* [r609] COMPATIBILITY, ChangeLog, bin/SaturneGUI: Replace
	  depecrated references to Tcl/Tk/Tix by PyQt ones. Update the
	  wrapper around the Graphical User Interface.

2008-11-05 18:58  Code_Saturne development team <saturne-support@edf.fr>

	* [r608] ChangeLog, doc/TUTORIAL/latex/case4.tex,
	  doc/USER/latex/saturne1.tex, include/base/pointe.h,
	  src/base/caltri.F, src/base/covofi.F, src/base/dttvar.F,
	  src/base/iniini.F, src/base/mempdc.F, src/base/navsto.F,
	  src/base/phyvar.F, src/base/preduv.F, src/base/reseps.F,
	  src/base/resolp.F, src/base/resrij.F, src/base/resssg.F,
	  src/base/resv2f.F, src/base/scalai.F, src/base/tridim.F,
	  src/base/tsepdc.F, src/base/turbke.F, src/base/turbkw.F,
	  src/base/turrij.F, src/base/visdyn.F, src/base/vislmg.F,
	  src/base/vissec.F, src/base/vissma.F, src/base/vissst.F,
	  src/cfbl/cfdivs.F, src/cfbl/cfdttv.F, src/cfbl/cfener.F,
	  src/cfbl/cfmsfl.F, src/cfbl/cfmsgs.F, src/cfbl/cfmsvl.F,
	  src/cfbl/cfqdmv.F, src/cogz/ebutss.F, src/cogz/lwctss.F,
	  src/cplv/cpltss.F, src/cplv/cpltsv.F, src/cplv/cptssc.F,
	  src/cplv/cptsvc.F, src/elec/eltssc.F, src/fuel/futssc.F,
	  src/fuel/futsvc.F, src/mati/mtkpdc.F, src/mati/mttsns.F,
	  src/mati/mttssc.F, src/pprt/pptssc.F, users/base/uskpdc.F,
	  users/base/ussmag.F, users/base/ustske.F, users/base/ustskw.F,
	  users/base/ustsma.F, users/base/ustsns.F, users/base/ustsri.F,
	  users/base/ustssc.F, users/base/ustsv2.F, users/base/usvist.F:
	  Always set the head loss tensor to be a full symmetric tensor in
	  order to ease the setup within the Graphical User Interface
	  (NCKPDC has been removed and replaced by the constant 6).

2008-11-05 18:43  Code_Saturne development team <saturne-support@edf.fr>

	* [r607] ChangeLog, bin/cs_profile, include/base/cs_gui.h,
	  include/base/cs_gui_util.h, include/base/cs_prototypes.h,
	  src/base/caltri.F, src/base/cs_gui.c,
	  src/base/cs_gui_radiative_transfer.c, src/base/cs_gui_util.c,
	  src/base/iniusi.F, src/base/stdtcl.F, src/base/tridim.F,
	  src/cplv/cpltcl.F, src/pprt/ppclim.F: Modifications in the XML
	  reader related to the upgrade of the Graphical User Interface in
	  version 1.4.c (now written in PyQt). Improvements in some areas
	  but the Interface is not complete yet.

2008-11-05 18:36  Code_Saturne development team <saturne-support@edf.fr>

	* [r606] ChangeLog, src/base/cs_ecs_messages.c: Fix a bug arising
	  when the ratio between the number of processors and the number of
	  cells is two high.

2008-11-05 18:22  Code_Saturne development team <saturne-support@edf.fr>

	* [r605] ChangeLog, bin/Makefile: Makefile simplifications.

2008-11-05 17:50  Code_Saturne development team <saturne-support@edf.fr>

	* [r604] ChangeLog, bin/macros_Blue_Gene_L.mk,
	  bin/macros_Blue_Gene_P.mk, bin/macros_Darwin.mk,
	  bin/macros_Linux.mk, bin/macros_Linux_Ch.mk,
	  bin/macros_Linux_IA64.mk, bin/macros_Linux_x86_64.mk: Upgrading
	  to BFT 1.0.8

2008-11-05 17:23  Code_Saturne development team <saturne-support@edf.fr>

	* [r601] ChangeLog, bin/Makefile, bin/cs_profile, bin/runcase,
	  bin/runcase.help, bin/runcase_syrthes, include/base/cs_base.h,
	  include/base/cs_coupling.h, include/base/cs_opts.h,
	  include/base/cs_syr3_comm.h, include/base/cs_syr3_coupling.h,
	  include/base/cs_syr3_messages.h, include/base/cs_syr4_coupling.h,
	  include/base/cs_syr_coupling.h, src/base/coupbi.F,
	  src/base/coupbo.F, src/base/cregeo.F, src/base/cs_base.c,
	  src/base/cs_couplage.c, src/base/cs_coupling.c,
	  src/base/cs_main.c, src/base/cs_opts.c, src/base/cs_syr3_comm.c,
	  src/base/cs_syr3_coupling.c, src/base/cs_syr3_messages.c,
	  src/base/cs_syr4_coupling.c, src/base/cs_syr_coupling.c,
	  src/base/cs_syr_util.F, src/base/initi1.F, users/base/ussyrc.F:
	  Major overhauling of the SYRTHES coupling: upgrade to FVM 0.12.0
	  and its coupling library, coupling with SYRTHES 3 and in the
	  future SYRTHES 4 available, definition of coupling via a user
	  subroutine instead of a script command, simpler MPI
	  initialization.

2008-11-05 17:14  Code_Saturne development team <saturne-support@edf.fr>

	* [r600] ChangeLog, bin/macros_Blue_Gene_L.mk,
	  bin/macros_Blue_Gene_P.mk, bin/macros_Darwin.mk,
	  bin/macros_Linux.mk, bin/macros_Linux_Ch.mk,
	  bin/macros_Linux_IA64.mk, bin/macros_Linux_x86_64.mk,
	  src/base/cs_base.c: Upgrading to FVM version 0.12.0 (fix a bug
	  with MPI/IO).

2008-11-04 13:40  Code_Saturne development team <saturne-support@edf.fr>

	* [r599] ChangeLog: Ditto for vector synchronization.

2008-11-04 13:40  Code_Saturne development team <saturne-support@edf.fr>

	* [r598] src/base/cs_perio.c: Ditto for vector synchronization.

2008-11-04 13:36  Code_Saturne development team <saturne-support@edf.fr>

	* [r597] ChangeLog, src/base/cs_perio.c: Fix a bug if the
	  simulation has a periodicity of a translation (missing test on
	  the presence of rotation).

2008-10-31 14:47  Code_Saturne development team <saturne-support@edf.fr>

	* [r595] ChangeLog, include/base/cstphy.h, src/base/alemaj.F,
	  src/base/calgeo.F, src/base/caltri.F, src/base/clvolc.F,
	  src/base/cregeo.F, src/base/gradrc.F: Make the test on the
	  convergence of the gradient reconstruction method dimensionless
	  if the maximum control volume is greater than 1 (useful for some
	  atmospheric simulations).

2008-10-31 14:42  Code_Saturne development team <saturne-support@edf.fr>

	* [r594] bin/runcase: Change -param option in --param

2008-10-31 13:40  Code_Saturne development team <saturne-support@edf.fr>

	* [r593] ChangeLog, bin/macros_Blue_Gene_P.mk: Fix a MPI blocking
	  bug on the BlueGene/P system (from IBM).

2008-10-30 17:06  Code_Saturne development team <saturne-support@edf.fr>

	* [r589] ChangeLog, bin/macros_Linux.mk, bin/macros_Linux_IA64.mk,
	  bin/macros_Linux_x86_64.mk, bin/runcase, users/base/uskpdc.F,
	  users/base/usproj.F: Merging from the 1.3 branch (-r 736:741,
	  updating macros, runcase adaptation for Salome, examples in
	  uskpdc and usproj).

2008-10-29 13:30  Code_Saturne development team <saturne-support@edf.fr>

	* [r583] ChangeLog, include/base/cs_base.h,
	  include/base/cs_ecs_messages.h, include/base/cs_grid.h,
	  include/base/cs_mesh.h, include/base/cs_mesh_connect.h,
	  include/base/cs_opts.h, include/base/cs_parall.h,
	  include/base/cs_post.h, include/base/cs_prototypes.h,
	  src/base/coupbi.F, src/base/coupbo.F, src/base/cs_base.c,
	  src/base/cs_couplage.c, src/base/cs_main.c, src/base/cs_mesh.c,
	  src/base/cs_mesh_connect.c, src/base/cs_mesh_quantities.c,
	  src/base/cs_mesh_warping.c, src/base/cs_multigrid.c,
	  src/base/cs_opts.c, src/base/cs_parall.c, src/base/cs_post.c,
	  src/base/cs_sles.c, src/base/cs_suite.c,
	  src/base/cs_syr3_coupling.c, src/base/cs_tpar1d.c: English
	  translation of code and comments in several files, along with
	  some minor improvements.

2008-10-29 11:52  Code_Saturne development team <saturne-support@edf.fr>

	* [r582] ChangeLog, src/base/cs_ecs_messages.c: Fix a bug when
	  extracting part of the mesh if there is no boundary face.

2008-10-29 11:46  Code_Saturne development team <saturne-support@edf.fr>

	* [r581] ChangeLog, src/lagr/lagopt.F: Merging from the 1.3 branch
	  (-r 731:732, minor lagopt bug fix)

2008-10-29 09:52  Code_Saturne development team <saturne-support@edf.fr>

	* [r580] ChangeLog, bin/runcase, bin/runcase.help: Add a
	  COMMAND_REORIENT variable in the runcase in order to simplify the
	  runcase setup by the GUI.

2008-10-28 11:31  Code_Saturne development team <saturne-support@edf.fr>

	* [r578] ChangeLog, bin/cs_info, bin/mpi_rank.sh: Minor corrections
	  and improvement in scripts.

2008-10-27 19:03  Code_Saturne development team <saturne-support@edf.fr>

	* [r577] ChangeLog, src/base/crstgr.F, src/base/cs_grid.c:
	  Correction on the use of shared arrays.

2008-10-27 18:39  Code_Saturne development team <saturne-support@edf.fr>

	* [r576] include/base/cs_selector.h: Add C functions to deal with
	  face/cell selection.

2008-10-27 18:38  Code_Saturne development team <saturne-support@edf.fr>

	* [r575] ChangeLog, src/base/cs_selector.c: Add C functions to deal
	  with face/cell selection.

2008-10-27 18:34  Code_Saturne development team <saturne-support@edf.fr>

	* [r574] ChangeLog, include/base/cs_prototypes.h: Adding some
	  Fortran prototypes for C callers.

2008-10-27 18:28  Code_Saturne development team <saturne-support@edf.fr>

	* [r573] ChangeLog, include/base/cs_io.h: Missing header in the
	  previous fvm_file_offt changeset.

2008-10-27 18:17  Code_Saturne development team <saturne-support@edf.fr>

	* [r572] ChangeLog, bin/Makefile: Several Makefile corrections and
	  improvements.

2008-10-27 18:07  Code_Saturne development team <saturne-support@edf.fr>

	* [r571] ChangeLog, src/base/cs_mesh_coherency.c: Fix a bug in the
	  mesh coherency check in case of translation.

2008-10-27 18:04  Code_Saturne development team <saturne-support@edf.fr>

	* [r570] ChangeLog, src/base/initi1.F: Remove inconsistent
	  comments.

2008-10-27 18:02  Code_Saturne development team <saturne-support@edf.fr>

	* [r569] ChangeLog, src/base/cs_io.c: Change size_t variables to
	  fvm_file_offt in order to bypass some possible limitations on
	  BlueGene systems.

2008-10-27 17:59  Code_Saturne development team <saturne-support@edf.fr>

	* [r568] ChangeLog, src/base/cs_io.c: Fixing a bug when re-opening
	  a file.

2008-10-27 17:49  Code_Saturne development team <saturne-support@edf.fr>

	* [r567] ChangeLog, TODO, src/base/initi1.F: Remove the forcing to
	  ASCII mode for post-processing when the calculation is in
	  verification mode.

2008-10-27 17:35  Code_Saturne development team <saturne-support@edf.fr>

	* [r566] ChangeLog, src/base/verini.F: Correction on a warning
	  output (IPERIO instead of IRANGP).

2008-10-27 17:06  Code_Saturne development team <saturne-support@edf.fr>

	* [r565] ChangeLog, data/thch/dp_FUE: Updating the dp_FUE file for
	  fuel combustion to account for the number of fuel classes.

2008-10-27 16:46  Code_Saturne development team <saturne-support@edf.fr>

	* [r564] ChangeLog, data/thch/dp_FCP: Updating the dp_FCP file for
	  coal combustion according to the new oxycombustion model.

2008-10-27 16:40  Code_Saturne development team <saturne-support@edf.fr>

	* [r563] ChangeLog, bin/Autovalidation[DEL], bin/autovalid[DEL],
	  bin/autovalid.xml[DEL], extras/validation,
	  extras/validation/Autovalidation[CPY],
	  extras/validation/autovalid[CPY],
	  extras/validation/autovalid.xml[CPY]: Move the autovalidation
	  scripts to the extra directory.

2008-10-27 16:06  Code_Saturne development team <saturne-support@edf.fr>

	* [r562] ChangeLog, src/cplv/cplver.F: Remove a redundant
	  verification on the ICHRVR, ... variables.

2008-10-27 16:01  Code_Saturne development team <saturne-support@edf.fr>

	* [r561] ChangeLog, bin/check_consistency, bin/check_mesh: Minor
	  corrections in scripts.

2008-10-27 15:54  Code_Saturne development team <saturne-support@edf.fr>

	* [r560] ChangeLog, bin/Autovalidation/Case.py,
	  bin/Autovalidation/Study.py: English translation of part of the
	  autovalidation scripts.

2008-10-27 13:26  Code_Saturne development team <saturne-support@edf.fr>

	* [r559] ChangeLog, src/base/cs_ecs_messages.c: Fixing a bug in
	  cs_ecs_messages.c where all periodicities were added as a
	  rotation.

2008-10-27 13:10  Code_Saturne development team <saturne-support@edf.fr>

	* [r558] src/base/cs_io.c: Fixing a bug in cs_io.c where a file is
	  closed twice.

2008-10-27 13:08  Code_Saturne development team <saturne-support@edf.fr>

	* [r557] ChangeLog, src/base/varpos.F: Remove the test on the
	  number of cells in the restart files in varpos.F, as it is
	  unknown at this moment.

2008-10-09 15:49  Code_Saturne development team <saturne-support@edf.fr>

	* [r555] ChangeLog, src/lagr/lagopt.F: Merging from the 1.3 branch
	  (-r 705:706, minor lagopt bug fix).

2008-10-01 14:05  Code_Saturne development team <saturne-support@edf.fr>

	* [r552] ChangeLog, extras/macros_old/README,
	  extras/macros_old/macros_SunOS.mk, src/base/cs_mesh_warping.c,
	  src/fuel/futsvc.F: Merging from the 1.3 branch (-r 701:704,
	  missing argument and C89 syntax)

2008-09-17 15:36  Code_Saturne development team <saturne-support@edf.fr>

	* [r539] ChangeLog, TODO, bin/cs_profile,
	  bin/macros_Linux_CCRT.mk[DEL], doc/USER/latex/saturne1.tex,
	  extras/macros_old/README, extras/macros_old/macros_IRIX64.mk,
	  extras/macros_old/macros_Linux_CCRT.mk[CPY],
	  extras/macros_old/macros_OSF1.mk,
	  extras/macros_old/macros_SunOS.mk: Remove all occurences of the
	  CCRT machines Tantale.

2008-09-17 13:01  Code_Saturne development team <saturne-support@edf.fr>

	* [r538] ChangeLog, bin/Makefile, sbin/install: Temporary fix to
	  avoid building a void CTWR library.

2008-09-17 12:53  Code_Saturne development team <saturne-support@edf.fr>

	* [r537] sbin/install: Temporay fix to avoid building a void CTWR
	  library.

2008-09-17 09:45  Code_Saturne development team <saturne-support@edf.fr>

	* [r536] ChangeLog, po/fr.po: Updating french dictionnary.

2008-09-17 09:45  Code_Saturne development team <saturne-support@edf.fr>

	* [r535] ChangeLog: Minor correction on strings translation.

2008-09-17 09:45  Code_Saturne development team <saturne-support@edf.fr>

	* [r534] src/base/cs_multigrid.c: Minor correction on strings
	  translation.

2008-09-17 09:42  Code_Saturne development team <saturne-support@edf.fr>

	* [r533] ChangeLog, src/base/cs_ecs_messages.c: Correction on
	  periodicity transfer from the preprocessor.

2008-09-17 09:36  Code_Saturne development team <saturne-support@edf.fr>

	* [r532] ChangeLog, src/base/cs_ale.c, src/base/cs_base.c,
	  src/base/cs_benchmark.c, src/base/cs_blas.c,
	  src/base/cs_calcium.c, src/base/cs_couplage.c,
	  src/base/cs_ecs_messages.c, src/base/cs_ext_neighborhood.c,
	  src/base/cs_gradient.c, src/base/cs_grid.c, src/base/cs_gui.c,
	  src/base/cs_gui_matisse.c, src/base/cs_gui_radiative_transfer.c,
	  src/base/cs_gui_util.c, src/base/cs_halo.c, src/base/cs_io.c,
	  src/base/cs_main.c, src/base/cs_matrix.c, src/base/cs_mesh.c,
	  src/base/cs_mesh_coherency.c, src/base/cs_mesh_connect.c,
	  src/base/cs_mesh_halo.c, src/base/cs_mesh_quality.c,
	  src/base/cs_mesh_quantities.c, src/base/cs_mesh_select.c,
	  src/base/cs_mesh_solcom.c, src/base/cs_mesh_warping.c,
	  src/base/cs_multigrid.c, src/base/cs_opts.c,
	  src/base/cs_parall.c, src/base/cs_perio.c, src/base/cs_post.c,
	  src/base/cs_proxy_comm.c, src/base/cs_renumber.c,
	  src/base/cs_selector.c, src/base/cs_sles.c, src/base/cs_suite.c,
	  src/base/cs_syr3_comm.c, src/base/cs_syr3_coupling.c,
	  src/base/cs_syr3_messages.c, src/base/cs_tpar1d.c,
	  src/base/cs_ventil.c, src/base/tcpumx.c, src/base/tremai.c,
	  src/lagr/cs_lagr_perio.c, src/lagr/cs_lagrang.c: Replace all
	  occurences of #if defined(__cplusplus) ... with a macro defined
	  in cs_base.h for all C headers. The aim is to be able to compile
	  the code with a C++ compiler (for testing only).

2008-09-17 09:24  Code_Saturne development team <saturne-support@edf.fr>

	* [r531] ChangeLog, sbin/gettextize: Minor correction on the
	  gettextize script (for old gettext tools).

2008-09-17 09:22  Code_Saturne development team <saturne-support@edf.fr>

	* [r530] bin/cs_info: Documentation improvement and corrections.

2008-09-17 09:20  Code_Saturne development team <saturne-support@edf.fr>

	* [r529] ChangeLog, doc/THEORY/latex/Base/introd.tex,
	  doc/THEORY/latex/Base/turbke.tex,
	  doc/USER/graphics/cs_components.fig,
	  doc/USER/graphics/halo.eps[DEL], doc/USER/graphics/halo.pdf,
	  doc/USER/graphics/rota_perio_parall.jpg,
	  doc/USER/latex/saturne1.tex, doc/USER/latex/user.tex:
	  Documentation improvement and corrections.

2008-09-12 13:56  Code_Saturne development team <saturne-support@edf.fr>

	* [r528] ChangeLog, src/base/cs_proxy_comm.c: Change char array
	  initialization to comply with C++ error.

2008-09-12 12:09  Code_Saturne development team <saturne-support@edf.fr>

	* [r527] ChangeLog, src/base/cs_base.c: Revert to malloc call in
	  cs_base.c because memory management has not been initialized
	  before this call.

2008-09-12 10:19  Code_Saturne development team <saturne-support@edf.fr>

	* [r526] ChangeLog, sbin/install: Preparation for the cooling tower
	  specific physics (missing file).

2008-09-12 10:16  Code_Saturne development team <saturne-support@edf.fr>

	* [r525] ChangeLog, bin/Makefile, include/ctwr, src/ctwr,
	  users/ctwr: Preparation for the cooling tower specific physics.

2008-09-12 10:09  Code_Saturne development team <saturne-support@edf.fr>

	* [r524] ChangeLog, include/base/mltgrd.h, include/base/optcal.h,
	  src/base/calhyd.F, src/base/codits.F, src/base/distpr.F,
	  src/base/impini.F, src/base/iniini.F, src/base/resolp.F,
	  src/base/verini.F: Revert to old behaviour when multigrid options
	  were separated in two headers in order to use multigrid algorithm
	  in codits subroutine.

2008-09-12 10:07  Code_Saturne development team <saturne-support@edf.fr>

	* [r523] ChangeLog, src/base/cs_base.c, src/base/cs_matrix.c,
	  src/base/cs_mesh_warping.c: Several corrections found with a C++
	  compiler (replace malloc function with BFT_MALLOC macro, exchange
	  arguments in function call, replace false by NULL in a
	  comparison). These issues had no impact on the code.

2008-09-11 07:22  Code_Saturne development team <saturne-support@edf.fr>

	* [r522] ChangeLog, bin/Makefile: Makefile modification so that one
	  does not need anymore to symlink all the headers in a user
	  directory.

2008-09-11 07:18  Code_Saturne development team <saturne-support@edf.fr>

	* [r521] ChangeLog, bin/Makefile: Add a potential option for the
	  Fortran preprocessor for CS_LANG.

2008-09-10 10:04  Code_Saturne development team <saturne-support@edf.fr>

	* [r520] ChangeLog, src/base/cs_mesh_halo.c: Remove unused variable
	  (comm_buffer_size).

2008-09-10 09:31  Code_Saturne development team <saturne-support@edf.fr>

	* [r519] ChangeLog, include/base/cs_halo.h: Remove a comma at the
	  end of an enum.

2008-09-10 09:29  Code_Saturne development team <saturne-support@edf.fr>

	* [r518] ChangeLog, include/base/cs_ale.h, include/base/cs_base.h,
	  include/base/cs_benchmark.h, include/base/cs_blas.h,
	  include/base/cs_calcium.h, include/base/cs_couplage.h,
	  include/base/cs_ecs_messages.h,
	  include/base/cs_ext_neighborhood.h, include/base/cs_gradient.h,
	  include/base/cs_grid.h, include/base/cs_gui.h,
	  include/base/cs_gui_matisse.h,
	  include/base/cs_gui_radiative_transfer.h,
	  include/base/cs_gui_util.h, include/base/cs_halo.h,
	  include/base/cs_io.h, include/base/cs_matrix.h,
	  include/base/cs_mesh.h, include/base/cs_mesh_coherency.h,
	  include/base/cs_mesh_connect.h, include/base/cs_mesh_halo.h,
	  include/base/cs_mesh_quality.h,
	  include/base/cs_mesh_quantities.h, include/base/cs_mesh_select.h,
	  include/base/cs_mesh_solcom.h, include/base/cs_mesh_warping.h,
	  include/base/cs_multigrid.h, include/base/cs_opts.h,
	  include/base/cs_parall.h, include/base/cs_perio.h,
	  include/base/cs_post.h, include/base/cs_prototypes.h,
	  include/base/cs_proxy_comm.h, include/base/cs_renumber.h,
	  include/base/cs_selector.h, include/base/cs_sles.h,
	  include/base/cs_suite.h, include/base/cs_syr3_comm.h,
	  include/base/cs_syr3_coupling.h, include/base/cs_syr3_messages.h,
	  include/base/cs_tpar1d.h, include/base/cs_ventil.h,
	  include/base/tcpumx.h, include/base/tremai.h,
	  include/lagr/cs_lagr_perio.h, include/lagr/cs_lagrang.h: Replace
	  all occurences of #if defined(__cplusplus) ... with a macro
	  defined in cs_base.h for all C headers.

2008-09-09 17:55  Code_Saturne development team <saturne-support@edf.fr>

	* [r517] ChangeLog, src/base/dvvpst.F, src/base/iniini.F,
	  src/cogz/colecd.F, src/cogz/lwcurl.F, src/cplv/cplecd.F,
	  src/cplv/cprays.F, src/cplv/cpthp2.F, src/elec/ellecd.F,
	  src/fuel/fulecd.F, src/fuel/futhp2.F, src/lagr/lagaff.F,
	  src/lagr/lagcar.F, src/lagr/lagcou.F, src/lagr/lageqp.F,
	  src/lagr/lages1.F, src/lagr/lages2.F, src/lagr/lagesp.F,
	  src/lagr/lagfch.F, src/lagr/lagich.F, src/lagr/lagitf.F,
	  src/lagr/lagpoi.F, src/lagr/lagsta.F, src/lagr/lagune.F,
	  src/mati/mtproj.F, src/mati/mttycl.F, src/pprt/pplecd.F: Remove
	  unused headers in Fortran sources.

2008-09-09 17:07  Code_Saturne development team <saturne-support@edf.fr>

	* [r516] ChangeLog, src/base/cs_proxy_comm.c,
	  src/base/cs_syr3_comm.c: Replace deprecated socket structure with
	  standard one.

2008-09-09 12:11  Code_Saturne development team <saturne-support@edf.fr>

	* [r515] ChangeLog, bin/Makefile, po/fr.po, src/base/caltri.F,
	  src/base/cs_gui.c, src/base/cs_gui_matisse.c,
	  src/base/cs_gui_radiative_transfer.c, src/base/cs_gui_util.c,
	  src/base/cs_main.c, src/base/cs_opts.c, src/base/iniusi.F,
	  src/base/inivar.F, src/base/memini.F, src/base/tridim.F,
	  src/cplv/cpini1.F, src/cplv/cpprop.F, src/cplv/cpvarp.F,
	  src/mati/mtimpi.F, src/mati/mtini1.F, src/pprt/ppclim.F,
	  src/rayt/raycli.F, src/rayt/raydom.F, src/rayt/rayopt.F: Remove
	  _CS_HAVE_XML dependency in Fortran files.

2008-09-09 10:00  Code_Saturne development team <saturne-support@edf.fr>

	* [r514] ChangeLog, bin/runcase: Minor modifications in runcase
	  output.

2008-09-09 09:58  Code_Saturne development team <saturne-support@edf.fr>

	* [r513] ChangeLog, src/base/cs_suite.c: Fix a bug in the new
	  restart files handling.

2008-09-09 09:51  Code_Saturne development team <saturne-support@edf.fr>

	* [r512] ChangeLog, po/fr.po, src/base/cs_tpar1d.c: Correct wrong
	  test and output string.

2008-08-22 15:25  Code_Saturne development team <saturne-support@edf.fr>

	* [r505] bin/cs_profile: Remove executable bit

2008-08-22 15:12  Code_Saturne development team <saturne-support@edf.fr>

	* [r504] bin/cs_info: Translate info_cs to cs_info.

2008-08-22 14:37  Code_Saturne development team <saturne-support@edf.fr>

	* [r503] bin/cs_create: Change 1.4.a to 1.4.b in cs_create.

2008-08-22 14:25  Code_Saturne development team <saturne-support@edf.fr>

	* [r502] src/base/verini.F: Add missin translation.

2008-08-22 13:26  Code_Saturne development team <saturne-support@edf.fr>

	* [r501] bin/macros_Linux_CCRT.mk: Updating Tantale cluster macros

2008-08-22 12:58  Code_Saturne development team <saturne-support@edf.fr>

	* [r500] bin/macros_Linux_x86_64.mk: Ipdating x86_64 macros.

2008-08-22 12:51  Code_Saturne development team <saturne-support@edf.fr>

	* [r498] bin/macros_Linux.mk, bin/macros_Linux_x86_64.mk: Updating
	  EDF's Calibre stations machine.

2008-08-22 12:31  Code_Saturne development team <saturne-support@edf.fr>

	* [r495] ChangeLog: Updating ChangeLog

2008-08-22 12:26  Code_Saturne development team <saturne-support@edf.fr>

	* [r494] ChangeLog, bin/Makefile, bin/autovalid.xml,
	  bin/cs_profile, doc/style/csdoc.sty, src/base/cs_opts.c: Change
	  version number to 1.4.b

2008-08-22 12:25  Code_Saturne development team <saturne-support@edf.fr>

	* [r493] bin/macros_Darwin.mk, bin/macros_Linux.mk,
	  bin/macros_Linux_x86_64.mk: Updating macros.

2008-08-22 12:15  Code_Saturne development team <saturne-support@edf.fr>

	* [r492] src/base/cs_syr3_coupling.c: Add missing brace.

2008-08-22 12:09  Code_Saturne development team <saturne-support@edf.fr>

	* [r491] po/fr.po, src/base/cs_io.c: Finishing and cleaning
	  translation (again).

2008-08-22 10:49  Code_Saturne development team <saturne-support@edf.fr>

	* [r490] po/fr.po, src/base/cs_halo.c, src/base/cs_io.c,
	  src/base/cs_mesh_select.c, src/base/cs_multigrid.c,
	  src/base/cs_opts.c, src/base/cs_perio.c,
	  src/base/cs_proxy_comm.c, src/base/cs_suite.c,
	  src/base/cs_syr3_coupling.c: Finishing and cleaning translation.

2008-08-22 10:13  Code_Saturne development team <saturne-support@edf.fr>

	* [r489] po/fr.po, src/base/cs_mesh_coherency.c,
	  src/base/cs_syr3_comm.c, src/lagr/cs_lagrang.c: Merge from
	  Version1_3 branch (-r 640:641 translation).

2008-08-22 09:20  Code_Saturne development team <saturne-support@edf.fr>

	* [r486] src/fuel/fulecd.F: Remove extra characters after column
	  72.

2008-08-22 09:19  Code_Saturne development team <saturne-support@edf.fr>

	* [r485] src/fuel/fulecd.F: Remove extra characters after column
	  72.

2008-08-22 09:17  Code_Saturne development team <saturne-support@edf.fr>

	* [r483] ChangeLog, src/base/cs_io.c, src/base/cs_syr3_comm.c:
	  Correction on prototypes if the code is compiled without MPI or
	  sockets support.

2008-08-22 09:09  Code_Saturne development team <saturne-support@edf.fr>

	* [r482] ChangeLog, src/base/cs_halo.c: Correction on buffer
	  definition if the code is compiled w/o PI.

2008-08-22 09:05  Code_Saturne development team <saturne-support@edf.fr>

	* [r481] ChangeLog, include/base/cs_base.h,
	  src/base/cs_proxy_comm.c: Correction on __STDC_VERSION__
	  detection for stdint include.

2008-08-22 09:00  Code_Saturne development team <saturne-support@edf.fr>

	* [r480] bin/cs_profile: Remove repeated achitecture name

2008-08-21 18:00  Code_Saturne development team <saturne-support@edf.fr>

	* [r479] src/base/cs_multigrid.c: Translate multigrid ouputs

2008-08-21 17:47  Code_Saturne development team <saturne-support@edf.fr>

	* [r478] src/base/cs_io.c: English correction.

2008-08-21 17:42  Code_Saturne development team <saturne-support@edf.fr>

	* [r477] bin/macros_Blue_Gene_L.mk, bin/macros_Blue_Gene_P.mk,
	  bin/macros_Darwin.mk, bin/macros_Linux.mk,
	  bin/macros_Linux_CCRT.mk, bin/macros_Linux_Ch.mk,
	  bin/macros_Linux_IA64.mk, bin/macros_Linux_x86_64.mk: Upgrade to
	  BFT version 1.0.7

2008-08-21 17:41  Code_Saturne development team <saturne-support@edf.fr>

	* [r476] ChangeLog, po/Makevars, po/Makevars.template,
	  po/POTFILES.in, po/fr.po, po/remove-potcdate.sed,
	  src/base/cs_base.c, src/base/cs_benchmark.c,
	  src/base/cs_couplage.c, src/base/cs_ecs_messages.c,
	  src/base/cs_ext_neighborhood.c, src/base/cs_gradient.c,
	  src/base/cs_gui.c, src/base/cs_gui_radiative_transfer.c,
	  src/base/cs_io.c, src/base/cs_main.c, src/base/cs_matrix.c,
	  src/base/cs_mesh.c, src/base/cs_mesh_coherency.c,
	  src/base/cs_mesh_connect.c, src/base/cs_mesh_halo.c,
	  src/base/cs_mesh_quality.c, src/base/cs_mesh_quantities.c,
	  src/base/cs_mesh_select.c, src/base/cs_mesh_solcom.c,
	  src/base/cs_mesh_warping.c, src/base/cs_opts.c,
	  src/base/cs_perio.c, src/base/cs_post.c, src/base/cs_selector.c,
	  src/base/cs_sles.c, src/base/cs_suite.c, src/base/cs_syr3_comm.c,
	  src/base/cs_syr3_coupling.c, src/base/cs_syr3_messages.c,
	  src/base/cs_tpar1d.c: Merging from the 1.3 branch (-r 614:622, C
	  output translation)

2008-08-21 16:05  Code_Saturne development team <saturne-support@edf.fr>

	* [r473] ChangeLog, include/base/cs_syr3_comm.h,
	  src/base/cs_opts.c, src/base/cs_syr3_comm.c: Remove the pipe
	  communication mode for SYRTHES coupling.

2008-08-21 15:51  Code_Saturne development team <saturne-support@edf.fr>

	* [r472] ChangeLog, include/base/cs_io.h, include/base/cs_suite.h,
	  src/base/cs_ecs_messages.c, src/base/cs_io.c, src/base/cs_main.c,
	  src/base/cs_suite.c: Change the restart file format to comply
	  with the new common format file (with the Preprocessor output).

2008-08-21 15:48  Code_Saturne development team <saturne-support@edf.fr>

	* [r471] src/base/cs_gui.c: Removing obsolete static function.

2008-08-21 15:40  Code_Saturne development team <saturne-support@edf.fr>

	* [r470] include/base/cs_base.h: Removing obsolete prototype.

2008-08-21 09:49  Code_Saturne development team <saturne-support@edf.fr>

	* [r463] src/base/impini.F: Correction on some output formats.

2008-08-21 09:18  Code_Saturne development team <saturne-support@edf.fr>

	* [r462] ChangeLog, bin/Makefile, bin/macros_Blue_Gene_L.mk,
	  bin/macros_Blue_Gene_P.mk, bin/macros_Darwin.mk,
	  bin/macros_Linux.mk, bin/macros_Linux_CCRT.mk,
	  bin/macros_Linux_Ch.mk, bin/macros_Linux_IA64.mk,
	  bin/macros_Linux_x86_64.mk, src/base/alelap.F, src/base/armtps.F,
	  src/base/bilsc2.F, src/base/calhyd.F, src/base/caltri.F,
	  src/base/causta.F, src/base/cldipo.F, src/base/clipke.F,
	  src/base/clptrg.F, src/base/clptur.F, src/base/clpv2f.F,
	  src/base/clsyvt.F, src/base/clvolc.F, src/base/codits.F,
	  src/base/condli.F, src/base/cou1do.F, src/base/coupbi.F,
	  src/base/coupbo.F, src/base/covofi.F, src/base/cs_gui.c,
	  src/base/cs_gui_matisse.c, src/base/cs_gui_radiative_transfer.c,
	  src/base/cs_halo.c, src/base/cs_mesh.c,
	  src/base/cs_mesh_quantities.c, src/base/cs_opts.c,
	  src/base/cs_syr3_coupling.c, src/base/csinit.F,
	  src/base/distpr.F, src/base/distyp.F, src/base/divmas.F,
	  src/base/dttvar.F, src/base/ecrava.F, src/base/ecrhis.F,
	  src/base/ecrlis.F, src/base/gradrc.F, src/base/impini.F,
	  src/base/iniini.F, src/base/inimas.F, src/base/initi1.F,
	  src/base/initi2.F, src/base/inivar.F, src/base/invers.F,
	  src/base/itrgrp.F, src/base/itrmas.F, src/base/lecamo.F,
	  src/base/lecamp.F, src/base/lecamx.F, src/base/ledgeo.F,
	  src/base/letgeo.F, src/base/matrdt.F, src/base/matrix.F,
	  src/base/mempdc.F, src/base/memt1d.F, src/base/memtsm.F,
	  src/base/modini.F, src/base/modpar.F, src/base/navsto.F,
	  src/base/newmrk.F, src/base/numvec.F, src/base/phyvar.F,
	  src/base/preduv.F, src/base/projts.F, src/base/reseps.F,
	  src/base/resolp.F, src/base/resrij.F, src/base/resssg.F,
	  src/base/resv2f.F, src/base/scalai.F, src/base/stdtcl.F,
	  src/base/strdep.F, src/base/strhis.F, src/base/strini.F,
	  src/base/tridim.F, src/base/turbke.F, src/base/turbkw.F,
	  src/base/turrij.F, src/base/typecl.F, src/base/vandri.F,
	  src/base/varpos.F, src/base/vericl.F, src/base/verini.F,
	  src/base/vert1d.F, src/base/visdyn.F, src/base/vorimp.F,
	  src/base/vorini.F, src/base/vorver.F: Merging from the 1.3 branch
	  (-r 611:614, Fortran output translation)

2008-08-14 12:04  Code_Saturne development team <saturne-support@edf.fr>

	* [r453] ChangeLog, src/lagr/diverv.F, src/lagr/laggra.F: Merging
	  from the 1.3 branch (-r 604:605, Lagrangian with rotation)

2008-08-13 14:38  Code_Saturne development team <saturne-support@edf.fr>

	* [r451] ChangeLog, doc/USER/latex/saturne1.tex,
	  doc/USER/latex/saturne2.tex, include/base/cs_gui.h,
	  include/base/cs_suite.h, include/base/cs_tpar1d.h,
	  include/base/entsor.h, src/base/caltri.F, src/base/cs_gui.c,
	  src/base/cs_suite.c, src/base/cs_tpar1d.c, src/base/ecrava.F,
	  src/base/impini.F, src/base/iniini.F, src/base/iniusi.F,
	  src/base/lecamp.F, src/base/lecamx.F, src/base/modini.F,
	  src/base/varpos.F, src/base/verini.F, src/lagr/laglec.F,
	  src/lagr/lagout.F, src/rayt/raybrd.F, src/rayt/raylec.F,
	  src/rayt/rayout.F, users/base/usini1.F: Force restart files in
	  binary format, and remove unused commons.

2008-08-13 13:36  Code_Saturne development team <saturne-support@edf.fr>

	* [r450] include/base/cs_tpar1d.h: Code cleaning (indentation, ...)

2008-08-13 13:33  Code_Saturne development team <saturne-support@edf.fr>

	* [r449] src/base/cs_tpar1d.c: Code cleaning (indentation, ...)

2008-08-13 10:27  Code_Saturne development team <saturne-support@edf.fr>

	* [r448] ChangeLog, doc/USER/latex/a1_autovalid.tex,
	  doc/USER/latex/saturne1.tex: Update the documentation according
	  to the scripts translation.

2008-08-12 17:46  Code_Saturne development team <saturne-support@edf.fr>

	* [r447] ChangeLog, include/base/cs_io.h,
	  src/base/cs_ecs_messages.c, src/base/cs_io.c, src/base/cs_main.c:
	  Add a hint in cs_io_initialize for the file API, and correct a
	  type error.

2008-08-12 17:22  Code_Saturne development team <saturne-support@edf.fr>

	* [r446] ChangeLog, include/base/cs_mesh_select.h,
	  include/base/cs_opts.h, include/base/cs_suite.h,
	  src/base/cs_base.c, src/base/cs_benchmark.c,
	  src/base/cs_couplage.c, src/base/cs_ecs_messages.c,
	  src/base/cs_ext_neighborhood.c, src/base/cs_io.c,
	  src/base/cs_main.c, src/base/cs_mesh_halo.c,
	  src/base/cs_mesh_quality.c, src/base/cs_mesh_select.c,
	  src/base/cs_mesh_solcom.c, src/base/cs_mesh_warping.c,
	  src/base/cs_multigrid.c, src/base/cs_opts.c, src/base/cs_perio.c,
	  src/base/cs_post.c, src/base/cs_sles.c, src/base/cs_suite.c,
	  src/base/cs_syr3_comm.c, src/base/cs_syr3_coupling.c,
	  src/base/cs_tpar1d.c: Replace all occurences of CS_FALSE and
	  CS_TRUE by the standard false and true.

2008-08-12 11:57  Code_Saturne development team <saturne-support@edf.fr>

	* [r445] src/base/cs_multigrid.c, src/base/cs_opts.c,
	  src/base/gradmc.F, src/base/gradrc.F: Remove some unused includes

2008-08-12 11:50  Code_Saturne development team <saturne-support@edf.fr>

	* [r444] ChangeLog, TODO, include/base/cs_prototypes.h,
	  src/base/cs_mesh_warping.c, src/base/cs_renumber.c,
	  src/base/numvec.F: Handle the interior face families when
	  renumbering or cutting warped faces.

2008-08-11 15:40  Code_Saturne development team <saturne-support@edf.fr>

	* [r443] TODO: Updating TODO

2008-08-11 15:37  Code_Saturne development team <saturne-support@edf.fr>

	* [r442] ChangeLog, include/base/cs_halo.h,
	  include/base/cs_perio.h, src/base/cs_gradient.c,
	  src/base/cs_halo.c, src/base/cs_mesh.c, src/base/cs_parall.c,
	  src/base/cs_perio.c, src/base/grdcel.F, src/base/promav.F:
	  Temporary fix for rotation periodicity (especially with extended
	  neighborhood).

2008-08-11 15:11  Code_Saturne development team <saturne-support@edf.fr>

	* [r441] src/base/cs_io.c: Upgrade to new fvm_file API.

2008-08-11 14:56  Code_Saturne development team <saturne-support@edf.fr>

	* [r440] src/base/cs_perio.c: Minor correction to fix the new
	  algorithm for periodic definition

2008-08-11 14:38  Code_Saturne development team <saturne-support@edf.fr>

	* [r438] ChangeLog, src/base/cs_perio.c: Replace the algorithm used
	  to defined periodic couples in order to avoid a possible issue.

2008-08-11 13:42  Code_Saturne development team <saturne-support@edf.fr>

	* [r437] include/base/cs_mesh.h, src/base/cs_ecs_messages.c,
	  src/base/cs_mesh.c, src/base/cs_mesh_coherency.c: Add a
	  periodicity rotation indicator to the mesh structure.

2008-08-11 13:37  Code_Saturne development team <saturne-support@edf.fr>

	* [r436] ChangeLog, include/base/cs_io.h,
	  src/base/cs_ecs_messages.c, src/base/cs_io.c, src/base/cs_main.c:
	  Modifications related to the Code_Saturne I/O unification between
	  the preprocessor output and the solver restart files. Only
	  preprocessor output has been modified at the moment.

2008-08-11 12:21  Code_Saturne development team <saturne-support@edf.fr>

	* [r433] ChangeLog, patches[CPY]: Merging from the 1.3 branch (-r
	  584:585, adding patches directory)

2008-08-11 12:03  Code_Saturne development team <saturne-support@edf.fr>

	* [r431] ChangeLog, src/base/cs_mesh.c,
	  src/base/cs_mesh_coherency.c, src/base/cs_mesh_warping.c: Merging
	  from the 1.3 branch (-r 580:583, several minor corrections)

2008-08-08 15:44  Code_Saturne development team <saturne-support@edf.fr>

	* [r427] ChangeLog, include/base/cs_mesh_warping.h,
	  include/base/cs_opts.h, include/base/cs_post.h,
	  src/base/cs_main.c, src/base/cs_mesh_warping.c,
	  src/base/cs_opts.c, src/base/cs_post.c: Merging from the 1.3
	  branch (-r 577:579, cutting warped faces corrections)

2008-08-08 14:02  Code_Saturne development team <saturne-support@edf.fr>

	* [r424] include/base/cs_perio.h, users/cplv/uscpiv.F: Missing
	  files in previous commits

2008-08-08 14:00  Code_Saturne development team <saturne-support@edf.fr>

	* [r423] src/base/cs_perio.c, src/base/tridim.F: Merging from the
	  1.3 branch (-r 573:574, updating on extended halos)

2008-08-08 13:34  Code_Saturne development team <saturne-support@edf.fr>

	* [r422] ChangeLog, include/base/cs_perio.h, src/base/cs_perio.c:
	  ging from the 1.3 branch (-r 573:574, updating on extended halos)

2008-08-08 09:26  Code_Saturne development team <saturne-support@edf.fr>

	* [r418] include/base/cs_ecs_messages.h, include/base/cs_grid.h,
	  include/base/cs_matrix.h, include/base/cs_mesh_coherency.h,
	  include/base/cs_mesh_connect.h, include/base/cs_mesh_select.h,
	  include/base/cs_multigrid.h, include/base/cs_perio.h,
	  include/base/cs_prototypes.h, include/base/cs_sles.h,
	  include/base/cs_syr3_messages.h, src/base/cs_benchmark.c,
	  src/base/cs_ecs_messages.c, src/base/cs_ext_neighborhood.c,
	  src/base/cs_gui.c, src/base/cs_gui_radiative_transfer.c,
	  src/base/cs_main.c, src/base/cs_perio.c, src/base/cs_selector.c,
	  src/base/cs_sles.c, src/base/cs_syr3_messages.c,
	  src/base/letgeo.F, src/base/numvec.F, src/lagr/cs_lagr_perio.c,
	  src/lagr/cs_lagrang.c: Code cleaning (include headers only when
	  necessary)

2008-08-07 18:08  Code_Saturne development team <saturne-support@edf.fr>

	* [r417] bin/cs_profile: Upgrading the GUI in version 1.4.b

2008-08-07 18:06  Code_Saturne development team <saturne-support@edf.fr>

	* [r416] bin/grp[DEL]: Remove grp developer script

2008-08-07 17:45  Code_Saturne development team <saturne-support@edf.fr>

	* [r415] ChangeLog, include/cplv/cpincl.h, include/fuel/fuincl.h,
	  include/pprt/ppcpfu.h, include/pprt/ppincl.h, src/base/covofi.F,
	  src/base/iniusi.F, src/cplv/cpcym1.F[DEL], src/cplv/cpcym2.F,
	  src/cplv/cpflux.F, src/cplv/cpini1.F, src/cplv/cpiniv.F,
	  src/cplv/cplecd.F, src/cplv/cplin1.F, src/cplv/cplini.F,
	  src/cplv/cplphy.F, src/cplv/cpltcl.F, src/cplv/cplym1.F,
	  src/cplv/cppdf4.F, src/cplv/cppdf5.F[DEL], src/cplv/cpphy1.F,
	  src/cplv/cpphyv.F, src/cplv/cpprop.F, src/cplv/cpptcl.F,
	  src/cplv/cpteh1.F, src/cplv/cptehm.F, src/cplv/cptssc.F,
	  src/cplv/cpvarp.F, src/fuel/fucym1.F, src/fuel/fucyno.F,
	  src/fuel/fuflux.F, src/fuel/fuini1.F, src/fuel/fuiniv.F,
	  src/fuel/fulecd.F, src/fuel/fuphy1.F, src/fuel/fuphy2.F,
	  src/fuel/fuphyv.F, src/fuel/fuprop.F, src/fuel/fuptcl.F,
	  src/fuel/futeh2.F, src/fuel/futssc.F, src/fuel/futsvc.F,
	  src/fuel/futsvi.F, src/fuel/fuvarp.F, src/pprt/ppcabs.F,
	  src/pprt/ppcsca.F, src/pprt/ppinii.F, src/pprt/pppdfr.F,
	  src/pprt/ppphyv.F, src/pprt/ppray4.F, src/rayt/raydom.F,
	  src/rayt/rayopt.F, users/cplv/uscpcl.F, users/cplv/uscpi1.F,
	  users/cplv/uscpiv.F, users/fuel/usfucl.F, users/fuel/usfui1.F,
	  users/fuel/usfuiv.F, users/pprt/usppmo.F: Add oxycombustion and
	  fuel classes management.

2008-08-07 17:26  Code_Saturne development team <saturne-support@edf.fr>

	* [r414] sbin/install: Script improvement

2008-08-07 16:48  Code_Saturne development team <saturne-support@edf.fr>

	* [r413] bin/mpi_rank.sh[CPY], bin/rang_mpi.sh[DEL], bin/runcase,
	  sbin/compil, sbin/install: Scripts improvement and translation

2008-08-07 16:44  Code_Saturne development team <saturne-support@edf.fr>

	* [r412] bin/macros_Blue_Gene_L.mk, bin/macros_Blue_Gene_P.mk:
	  Merging from branch 1.3 (-r 563:564 BlueGene macros)

2008-08-07 15:35  Code_Saturne development team <saturne-support@edf.fr>

	* [r410] sbin/rmb, sbin/runrmb[DEL]: Blanks removal script
	  improvement

2008-08-07 12:46  Code_Saturne development team <saturne-support@edf.fr>

	* [r409] aux[DEL], extras[CPY]: Rename aux directory to extras

2008-08-07 12:41  Code_Saturne development team <saturne-support@edf.fr>

	* [r408] aux/clean[DEL], aux/compil.exe[DEL], aux/rmb.sh[DEL],
	  aux/rmb.sh_lance[DEL], sbin/clean[CPY], sbin/compil[CPY],
	  sbin/rmb[CPY], sbin/runrmb[CPY]: Move admin scripts from aux to
	  sbin

2008-08-07 10:05  Code_Saturne development team <saturne-support@edf.fr>

	* [r407] ChangeLog, aux/comparlist[DEL],
	  aux/listing_HP-UX.last[DEL], aux/listing_IRIX64.last[DEL],
	  aux/listing_Linux.last[DEL], aux/listing_Linux_CCRT.last[DEL],
	  aux/listing_Linux_Ch.last[DEL], aux/listing_OSF1.last[DEL],
	  aux/listing_SunOS.last[DEL]: Removing the compilation logs from
	  versioning.

2008-08-07 09:36  Code_Saturne development team <saturne-support@edf.fr>

	* [r406] include/base/cs_parall.h, src/base/cs_parall.c,
	  src/base/iniini.F: Remove unused PARGEO function and initialize
	  global dimensions.

2008-08-06 16:50  Code_Saturne development team <saturne-support@edf.fr>

	* [r405] src/base/cs_mesh_halo.c: Error message improvement

2008-08-06 16:41  Code_Saturne development team <saturne-support@edf.fr>

	* [r404] bin/Makefile, bin/macros_Linux.mk,
	  bin/macros_Linux_CCRT.mk, bin/runcase: Remove the executable bit
	  from the properties

2008-08-06 16:30  Code_Saturne development team <saturne-support@edf.fr>

	* [r403] aux/compil.exe, aux/rmb.sh_lance: Auxiliary scripts
	  improvement

2008-08-06 16:01  Code_Saturne development team <saturne-support@edf.fr>

	* [r402] src/base/cs_mesh.c: Change a <tab> to blanks

2008-08-06 15:59  Code_Saturne development team <saturne-support@edf.fr>

	* [r401] bin/macros_Linux_Ch.mk: Use of MPI_BIN variable where
	  needed

2008-08-06 15:51  Code_Saturne development team <saturne-support@edf.fr>

	* [r400] bin/macros_Blue_Gene_L.mk, bin/macros_Blue_Gene_P.mk,
	  bin/macros_Darwin.mk, bin/macros_Linux.mk,
	  bin/macros_Linux_CCRT.mk, bin/macros_Linux_Ch.mk,
	  bin/macros_Linux_IA64.mk, bin/macros_Linux_x86_64.mk: Minor
	  corrections in the macros files

2008-08-06 15:08  Code_Saturne development team <saturne-support@edf.fr>

	* [r399] ChangeLog, bin/cs_profile, bin/lance_install[DEL],
	  bin/macros_Blue_Gene_L.mk, bin/macros_Blue_Gene_P.mk,
	  bin/macros_Darwin.mk, bin/macros_Linux.mk,
	  bin/macros_Linux_CCRT.mk, bin/macros_Linux_Ch.mk,
	  bin/macros_Linux_IA64.mk, bin/macros_Linux_x86_64.mk,
	  bin/runcase, bin/runcase.help, include/base/cs_ecs_messages.h,
	  include/base/cs_io.h, include/base/cs_mesh.h,
	  include/base/parall.h, sbin/install[CPY],
	  src/base/cs_ecs_messages.c, src/base/cs_io.c, src/base/cs_main.c,
	  src/base/cs_mesh.c, src/base/cs_opts.c, src/base/impini.F,
	  src/base/iniini.F, src/base/majgeo.F: Upgrading to Preprocessor
	  1.4 and FVM 0.11.0 in order to separate the preprocessing from
	  the partioning. There is now a single preprocessor_output file,
	  so that mesh joining has not to be done again when one asks for a
	  different number of processors.

2008-08-06 10:28  Code_Saturne development team <saturne-support@edf.fr>

	* [r398] ChangeLog, src/base/cs_base.c: Removing heap memory
	  instrumentation.

2008-08-05 16:23  Code_Saturne development team <saturne-support@edf.fr>

	* [r397] include/base/cs_suite.h: Reverting to ISO-8859-1 encoding

2008-08-05 16:21  Code_Saturne development team <saturne-support@edf.fr>

	* [r396] ChangeLog: Upating ChangeLog (scripts improvements and
	  translation)

2008-08-05 15:57  Code_Saturne development team <saturne-support@edf.fr>

	* [r394] bin/Makefile: Makefile improvements

2008-08-05 15:46  Code_Saturne development team <saturne-support@edf.fr>

	* [r393] bin/Makefile, bin/cs_profile, bin/macros_Blue_Gene_L.mk,
	  bin/macros_Blue_Gene_P.mk, bin/macros_Darwin.mk,
	  bin/macros_Linux.mk, bin/macros_Linux_CCRT.mk,
	  bin/macros_Linux_Ch.mk, bin/macros_Linux_IA64.mk,
	  bin/macros_Linux_x86_64.mk, bin/runcase: CS_MPI_PATH is now
	  echoed by the Makefile

2008-08-05 15:41  Code_Saturne development team <saturne-support@edf.fr>

	* [r392] bin/runcase: Removing preprocessor communications echoing

2008-08-05 15:39  Code_Saturne development team <saturne-support@edf.fr>

	* [r391] bin/runcase: Removing pipes communication for SYRTHES
	  coupling

2008-08-05 15:34  Code_Saturne development team <saturne-support@edf.fr>

	* [r390] bin/runcase, src/base/cs_base.c: Improve the error
	  management in the runcase script

2008-08-05 15:33  Code_Saturne development team <saturne-support@edf.fr>

	* [r389] bin/compiler_version: Trailing blanks removal

2008-08-05 15:19  Code_Saturne development team <saturne-support@edf.fr>

	* [r388] bin/runcase, bin/runcase_syrthes: Replace all SYRTHES
	  stuff in runcase by a runcase_syrthes sub-script

2008-08-05 15:16  Code_Saturne development team <saturne-support@edf.fr>

	* [r387] bin/runcase, bin/runcase_mpi_env: Replace all MPI stuff in
	  runcase by a runcase_mpi_env sub-script

2008-08-05 15:05  Code_Saturne development team <saturne-support@edf.fr>

	* [r386] bin/gracehst, bin/lance_install,
	  bin/macros_Blue_Gene_L.mk, bin/macros_Blue_Gene_P.mk,
	  bin/macros_Darwin.mk, bin/macros_Linux.mk,
	  bin/macros_Linux_CCRT.mk, bin/macros_Linux_Ch.mk,
	  bin/macros_Linux_IA64.mk, bin/macros_Linux_x86_64.mk,
	  bin/rang_mpi.sh: Trailing blanks removal

2008-08-05 15:03  Code_Saturne development team <saturne-support@edf.fr>

	* [r385] bin/SaturneGUI, bin/check_consistency, bin/check_mesh,
	  bin/cree_sat[DEL], bin/cs_create[CPY], bin/cs_info[CPY],
	  bin/cs_profile, bin/ecs, bin/info_cs[DEL], bin/lance[DEL],
	  bin/lance.help[DEL], bin/runcase[CPY], bin/runcase.help[CPY]:
	  Scripts translation into english

2008-08-05 13:11  Code_Saturne development team <saturne-support@edf.fr>

	* [r383] bin/cree_sat: Merging from the 1.3 branch (-r 533:535, fix
	  cree_sat script)

2008-08-04 16:57  Code_Saturne development team <saturne-support@edf.fr>

	* [r380] ChangeLog, src/base/cs_mesh_coherency.c: Merging from the
	  1.3 branch (-r 531:532, coherency test improvement)

2008-08-04 16:36  Code_Saturne development team <saturne-support@edf.fr>

	* [r378] ChangeLog, bin/SaturneGUI, bin/compiler_version,
	  bin/cree_sat, bin/cs_profile, bin/info_cs, bin/lance,
	  bin/lance.help, bin/lance_install, bin/macros_Blue_Gene_L.mk,
	  bin/macros_Blue_Gene_P.mk, bin/macros_Darwin.mk,
	  bin/macros_Linux.mk, bin/macros_Linux_CCRT.mk,
	  bin/macros_Linux_Ch.mk, bin/macros_Linux_IA64.mk,
	  bin/macros_Linux_x86_64.mk, bin/rang_mpi.sh: Merging from the 1.3
	  branch (-r 529:530, scripts translation)

2008-08-04 13:21  Code_Saturne development team <saturne-support@edf.fr>

	* [r376] ChangeLog, src/lagr/laghis.F: Merging from the 1.3 branch
	  (-r 527:528, lagrangian bug fix)

2008-07-28 09:45  Code_Saturne development team <saturne-support@edf.fr>

	* [r374] bin/lance: Setting up the right path for the xml file in
	  the consistency test

2008-07-25 13:32  Code_Saturne development team <saturne-support@edf.fr>

	* [r373] include/base/cs_base.h, include/base/cs_couplage.h,
	  include/base/cs_ecs_messages.h, include/base/cs_gui.h,
	  include/base/cs_io.h, include/base/cs_mesh.h,
	  include/base/cs_mesh_connect.h, include/base/cs_mesh_solcom.h,
	  include/base/cs_parall.h, include/base/cs_post.h,
	  include/base/cs_selector.h, include/base/cs_suite.h,
	  include/base/cs_syr3_comm.h, include/base/cs_tpar1d.h,
	  include/base/cs_ventil.h, include/base/entsor.h,
	  include/base/tcpumx.h, include/base/tremai.h,
	  include/fuel/fuincl.h, include/lagr/cs_lagr_perio.h,
	  include/mati/matiss.h, users/base/usalcl.F, users/base/usclim.F,
	  users/base/usdpst.F, users/base/usini1.F, users/base/usmpst.F,
	  users/base/usproj.F, users/base/uspt1d.F, users/base/usthht.F,
	  users/base/ustmgr.F, users/base/usvort.F, users/base/usvpst.F,
	  users/cfbl/uscfcl.F, users/cfbl/uscfpv.F, users/cfbl/uscfth.F,
	  users/cfbl/uscfxi.F, users/elec/uselen.F, users/elec/usetcl.F,
	  users/lagr/uslag1.F, users/pprt/usppmo.F, users/rayt/usray1.F,
	  users/rayt/usray2.F, users/rayt/usray3.F: Revert changeset 516
	  (recoding in ASCII user files and include)

2008-07-25 10:01  Code_Saturne development team <saturne-support@edf.fr>

	* [r372] ChangeLog, bin/cs_profile, bin/macros_Blue_Gene_P.mk[CPY]:
	  Merging from the 1.3 branche (-r 523:524)

2008-07-24 15:40  Code_Saturne development team <saturne-support@edf.fr>

	* [r370] src/base/cs_ext_neighborhood.c: Fixing a bug in
	  Smagorinsky filter

2008-07-24 15:20  Code_Saturne development team <saturne-support@edf.fr>

	* [r369] src/base/caltri.F, src/base/cs_main.c, src/base/majgeo.F:
	  Updating mesh dimensions in MAJGEO in preparation of Preprocessor
	  changes

2008-07-24 15:19  Code_Saturne development team <saturne-support@edf.fr>

	* [r368] src/base/parge1.F[DEL]: Updating mesh dimensions in MAJGEO
	  in preparation of Preprocessor changes

2008-07-24 14:29  Code_Saturne development team <saturne-support@edf.fr>

	* [r367] ChangeLog, doc/USER/latex/saturne2.tex,
	  include/base/optcal.h, src/base/alelap.F, src/base/calhyd.F,
	  src/base/codits.F, src/base/covofi.F, src/base/distyp.F,
	  src/base/impini.F, src/base/iniini.F, src/base/modini.F,
	  src/base/preduv.F, src/base/reseps.F, src/base/resolp.F,
	  src/base/resrij.F, src/base/resssg.F, src/base/resv2f.F,
	  src/base/turbke.F, src/base/turbkw.F, src/cfbl/cfcdts.F,
	  src/cfbl/cfener.F, src/cfbl/cfmsvl.F, src/cfbl/cfqdmv.F,
	  src/lagr/lageqp.F, src/rayt/raypun.F, src/rayt/raysol.F: The
	  reconstruction of the right-hand side has now its own precision
	  parameter (EPSRSM) instead of using EPSILO.

2008-07-24 13:47  Code_Saturne development team <saturne-support@edf.fr>

	* [r366] src/base/vorini.F, src/cogz/lwcurl.F, src/cogz/pdflwc.F,
	  src/cogz/pdfpp3.F: Changing DSQRT to SQRT and DEXP to EXP

2008-07-24 12:48  Code_Saturne development team <saturne-support@edf.fr>

	* [r365] src/base/cs_perio.c: Behaviour of local sync is changed
	  accordingly to sync_strided

2008-07-24 12:29  Code_Saturne development team <saturne-support@edf.fr>

	* [r364] ChangeLog, include/base/cs_suite.h, src/base/cs_suite.c,
	  src/base/cs_tpar1d.c: Extending support for restart files to
	  extracted part of the mesh

2008-07-24 10:41  Code_Saturne development team <saturne-support@edf.fr>

	* [r363] include/base/cs_base.h, include/base/cs_couplage.h,
	  include/base/cs_ecs_messages.h, include/base/cs_gui.h,
	  include/base/cs_io.h, include/base/cs_mesh.h,
	  include/base/cs_mesh_connect.h, include/base/cs_mesh_solcom.h,
	  include/base/cs_parall.h, include/base/cs_post.h,
	  include/base/cs_selector.h, include/base/cs_suite.h,
	  include/base/cs_syr3_comm.h, include/base/cs_tpar1d.h,
	  include/base/cs_ventil.h, include/base/entsor.h,
	  include/base/tcpumx.h, include/base/tremai.h,
	  include/fuel/fuincl.h, include/lagr/cs_lagr_perio.h,
	  include/mati/matiss.h, users/base/usalcl.F, users/base/usclim.F,
	  users/base/usdpst.F, users/base/usini1.F, users/base/usmpst.F,
	  users/base/usproj.F, users/base/uspt1d.F, users/base/usthht.F,
	  users/base/ustmgr.F, users/base/usvort.F, users/base/usvpst.F,
	  users/cfbl/uscfcl.F, users/cfbl/uscfpv.F, users/cfbl/uscfth.F,
	  users/cfbl/uscfxi.F, users/elec/uselen.F, users/elec/usetcl.F,
	  users/lagr/uslag1.F, users/pprt/usppmo.F, users/rayt/usray1.F,
	  users/rayt/usray2.F, users/rayt/usray3.F: Recoding all include
	  and user files to ASCII encoding.

2008-07-24 09:49  Code_Saturne development team <saturne-support@edf.fr>

	* [r362] ChangeLog, include/base/cs_perio.h,
	  src/base/cs_mesh_quantities.c, src/base/cs_perio.c: Removing
	  cs_perio_sync_geo by cs_perio_sync_var

2008-07-24 09:05  Code_Saturne development team <saturne-support@edf.fr>

	* [r361] ChangeLog, include/base/cs_parall.h,
	  src/base/cs_benchmark.c, src/base/cs_ext_neighborhood.c,
	  src/base/cs_gradient.c, src/base/cs_grid.c, src/base/cs_matrix.c,
	  src/base/cs_mesh_coherency.c, src/base/cs_mesh_quantities.c,
	  src/base/cs_multigrid.c, src/base/cs_parall.c: Replacing all
	  occurences of cs_parall_sync with cs_halo_sync.

2008-07-23 18:00  Code_Saturne development team <saturne-support@edf.fr>

	* [r360] include/base/cs_syr3_coupling.h, src/base/cs_main.c,
	  src/base/cs_syr3_comm.c, src/base/cs_syr3_coupling.c,
	  src/base/cs_syr3_messages.c: Blank cleaning

2008-07-23 17:58  Code_Saturne development team <saturne-support@edf.fr>

	* [r359] include/base/cs_syr3_comm.h,
	  include/base/cs_syr3_coupling.h, include/base/cs_syr3_messages.h,
	  src/base/cs_main.c, src/base/cs_opts.c, src/base/cs_syr3_comm.c,
	  src/base/cs_syr3_coupling.c, src/base/cs_syr3_messages.c:
	  Renaming cs_syr_ and cs_comm_ functions to cs_syr3_ and
	  cs_syr3_comm_

2008-07-23 17:22  Code_Saturne development team <saturne-support@edf.fr>

	* [r358] src/base/cs_comm.c[DEL], src/base/cs_syr3_comm.c[CPY]:
	  Renaming cs_comm_ to cs_syr3_comm as it is only used for SYRTHES
	  3.x coupling

2008-07-23 17:21  Code_Saturne development team <saturne-support@edf.fr>

	* [r357] include/base/cs_comm.h[DEL],
	  include/base/cs_syr3_comm.h[CPY],
	  include/base/cs_syr3_coupling.h, src/base/cs_comm.c,
	  src/base/cs_opts.c: Renaming cs_comm_ to cs_syr3_comm as it is
	  only used for SYRTHES 3.x coupling

2008-07-23 17:15  Code_Saturne development team <saturne-support@edf.fr>

	* [r356] src/base/cs_main.c, src/base/cs_opts.c,
	  src/base/cs_syr3_coupling.c, src/base/cs_syr3_messages.c:
	  Renaming cs_syr_ routines to cs_syr3_ to prepare the upgrade to
	  SYRTHES 4

2008-07-23 17:13  Code_Saturne development team <saturne-support@edf.fr>

	* [r355] include/base/cs_syr3_coupling.h[CPY],
	  include/base/cs_syr3_messages.h[CPY],
	  include/base/cs_syr_coupling.h[DEL],
	  include/base/cs_syr_messages.h[DEL]: Renaming cs_syr_ routines to
	  cs_syr3_ to prepare the upgrade to SYRTHES 4

2008-07-23 17:12  Code_Saturne development team <saturne-support@edf.fr>

	* [r354] src/base/cs_syr3_coupling.c[CPY],
	  src/base/cs_syr3_messages.c[CPY],
	  src/base/cs_syr_coupling.c[DEL], src/base/cs_syr_messages.c[DEL]:
	  Renaming cs_syr_ routines to cs_syr3_ to prepare the upgrade to
	  SYRTHES 4

2008-07-11 16:51  Code_Saturne development team <saturne-support@edf.fr>

	* [r353] src/base/cs_ecs_messages.c, src/base/cs_io.c,
	  src/base/cs_main.c, src/base/cs_opts.c: Renaming cs_pp_io header
	  to cs_io where it is used

2008-07-11 16:48  Code_Saturne development team <saturne-support@edf.fr>

	* [r352] include/base/cs_syr_messages.h, src/base/cs_main.c,
	  src/base/cs_parall.c: Removing unused cs_comm.h header

2008-07-11 16:35  Code_Saturne development team <saturne-support@edf.fr>

	* [r351] po/POTFILES.in: Updating POTFILES.in due to cs_pp_io
	  renaming

2008-07-11 16:01  Code_Saturne development team <saturne-support@edf.fr>

	* [r350] bin/Makefile, bin/lance_install,
	  bin/macros_Blue_Gene_L.mk, bin/macros_Darwin.mk,
	  bin/macros_Linux.mk, bin/macros_Linux_CCRT.mk,
	  bin/macros_Linux_Ch.mk, bin/macros_Linux_IA64.mk,
	  bin/macros_Linux_x86_64.mk, include/base/cs_base.h, po[CPY],
	  sbin[CPY], src/base/cs_base.c, src/base/cs_comm.c,
	  src/base/cs_halo.c, src/base/cs_main.c, src/base/cs_mesh.c,
	  src/base/cs_sles.c: Merging kernel localization from Version1_3
	  branch (-r 498:502)

2008-07-11 14:47  Code_Saturne development team <saturne-support@edf.fr>

	* [r348] include/base/cs_io.h[CPY], include/base/cs_pp_io.h[DEL],
	  src/base/cs_io.c[CPY], src/base/cs_pp_io.c[DEL]: Renaming
	  cs_pp_io to cs_io to prepare for new IO system

2008-07-10 15:26  Code_Saturne development team <saturne-support@edf.fr>

	* [r345] src/base/cs_ext_neighborhood.c: Merging a periodicity fix
	  (in dynamic LES) from Version1_3 branch (-r 496:497)

2008-07-08 13:48  Code_Saturne development team <saturne-support@edf.fr>

	* [r343] ChangeLog, bin/gracehst, bin/lance: Merging fixes from
	  Version1_3 branch (-r 494:495)

2008-06-30 16:18  Code_Saturne development team <saturne-support@edf.fr>

	* [r340] ChangeLog, src/base/cs_grid.c: Fixing some bugs in the
	  multigrid algorithm when periodicity is present.

2008-06-30 16:15  Code_Saturne development team <saturne-support@edf.fr>

	* [r339] src/base/invers.F: Correction on some comments

2008-06-30 16:10  Code_Saturne development team <saturne-support@edf.fr>

	* [r338] ChangeLog, src/base/distyp.F: Fixing a but in the call to
	  CODITS in the non-dimensional distance to the wall calculation.

2008-06-30 16:00  Code_Saturne development team <saturne-support@edf.fr>

	* [r337] src/base/clptrg.F, src/base/cs_gui.c: Merge changes from
	  Version1_3 branch to trunk (-r 476:489)

2008-06-30 14:20  Code_Saturne development team <saturne-support@edf.fr>

	* [r334] bin/macros_Blue_Gene_L.mk, bin/macros_Darwin.mk,
	  bin/macros_Linux.mk, bin/macros_Linux_CCRT.mk,
	  bin/macros_Linux_Ch.mk, bin/macros_Linux_IA64.mk,
	  bin/macros_Linux_x86_64.mk: Updating comments in macros files
	  accordingly with source files.

2008-06-30 14:13  Code_Saturne development team <saturne-support@edf.fr>

	* [r333] ChangeLog, bin/check_consistency, bin/lance: Adding a test
	  on the number of domains and the lagrangian simulation in the
	  launch script, and fixing a bug on the radiation results copy.

2008-06-30 14:02  Code_Saturne development team <saturne-support@edf.fr>

	* [r332] src/base/cs_sles.c: Correcting some comments.

2008-06-30 13:56  Code_Saturne development team <saturne-support@edf.fr>

	* [r331] ChangeLog: Creating a directory structure for How-to
	  documentation.

2008-06-30 13:52  Code_Saturne development team <saturne-support@edf.fr>

	* [r330] doc/HOWTO/Makefile, doc/HOWTO/graphics/Makefile,
	  doc/HOWTO/latex/Makefile: Adding Makefiles for How-to
	  documentation.

2008-06-30 13:48  Code_Saturne development team <saturne-support@edf.fr>

	* [r329] doc/HOWTO/graphics, doc/HOWTO/input, doc/HOWTO/latex:
	  Creating How-to documention directory structure.

2008-06-30 13:47  Code_Saturne development team <saturne-support@edf.fr>

	* [r328] doc/HOWTO: Creating How-to documention directory
	  structure.

2008-06-30 13:33  Code_Saturne development team <saturne-support@edf.fr>

	* [r327] ChangeLog, src/base/cs_main.c: Cosmethic changes in
	  Fortran memory display.

2008-06-30 13:28  Code_Saturne development team <saturne-support@edf.fr>

	* [r326] src/base/cs_base.c: Cosmethic correction on Fortran memory
	  display.

2008-06-30 13:18  Code_Saturne development team <saturne-support@edf.fr>

	* [r325] ChangeLog, bin/Makefile, bin/lance,
	  include/base/cs_mesh.h, src/base/cs_gui_util.c,
	  src/base/cs_matrix.c, src/base/cs_pp_io.c,
	  src/base/cs_selector.c, src/lagr/ouestu.F: Merge changes from
	  Version1_3 branch to trunk (-r 460:477)

2008-06-30 13:08  Code_Saturne development team <saturne-support@edf.fr>

	* [r324] Changelog[DEL]: Deleting old Changelog name

2008-06-25 09:08  Code_Saturne development team <saturne-support@edf.fr>

	* [r315] ChangeLog[CPY]: Renaming Changelog to the more usual
	  ChangeLog name

2008-06-25 09:07  Code_Saturne development team <saturne-support@edf.fr>

	* [r314] Changelog, src/base/cs_perio.c: Fixing a bug on
	  coordinates synchronization when periodicity is present

2008-06-18 13:17  Code_Saturne development team <saturne-support@edf.fr>

	* [r313] bin/SaturneGUI: Adding a test in case Salome has installed
	  his own Python

2008-06-17 16:59  Code_Saturne development team <saturne-support@edf.fr>

	* [r312] Changelog, bin/cs_profile, bin/macros_Linux.mk,
	  bin/macros_Linux_x86_64.mk: Removing LD_LIBRARY_PATH related to
	  libxml2 library because all machines have it installed locally.
	  Adding a comment when the user need to have it installed
	  elsewhere.

2008-06-17 16:39  Code_Saturne development team <saturne-support@edf.fr>

	* [r311] include/base/cs_base.h: Added stddef include for size_t
	  definition

2008-06-17 15:57  Code_Saturne development team <saturne-support@edf.fr>

	* [r309] Changelog, bin/macros_Linux.mk, bin/macros_Linux_CCRT.mk,
	  bin/macros_Linux_Ch.mk, bin/macros_Linux_IA64.mk,
	  bin/macros_Linux_x86_64.mk: Updating macros on Linux systems (use
	  of local libxml2 and ATLAS libraries whane available) and
	  upgrading to gcc 4.3.1

2008-06-17 14:25  Code_Saturne development team <saturne-support@edf.fr>

	* [r308] Changelog, bin/SaturneGUI, bin/cs_profile: Merge changes
	  from Version1_3 branch to trunk (-r 459:460)" concerning scripts
	  simplification.

2008-06-17 13:24  Code_Saturne development team <saturne-support@edf.fr>

	* [r304] Changelog: Updating Changelog

2008-06-17 13:24  Code_Saturne development team <saturne-support@edf.fr>

	* [r303] src/base/cs_ecs_messages.c: Add a warning when the number
	  of preprocessor_output files read by the kernel does not
	  correspond to the number of MPI processes.

2008-06-17 13:23  Code_Saturne development team <saturne-support@edf.fr>

	* [r302] src/rayt/raydak.F: Correction on wrong arguments in RAYDAK

2008-06-12 17:18  Code_Saturne development team <saturne-support@edf.fr>

	* [r298] src/base/autmgr.F, src/base/calgeo.F, src/base/caltri.F,
	  src/base/clptrg.F, src/base/codits.F, src/base/crstgr.F,
	  src/base/memsca.F, src/base/numvec.F, src/base/resolp.F,
	  src/base/strhis.F, src/base/verini.F, src/cfbl/cfcdts.F,
	  src/cogz/d3pver.F, src/cogz/ebuver.F, src/cogz/lwcver.F,
	  src/cplv/cptssc.F, src/lagr/enslag.F, src/lagr/lagesp.F,
	  src/lagr/laghis.F, src/pprt/ppray4.F, src/rayt/memra2.F,
	  users/base/uspt1d.F, users/base/usstru.F, users/base/ustmgr.F,
	  users/base/ustsma.F, users/base/usvort.F, users/rayt/usray3.F,
	  users/rayt/usray5.F: Removing all unused variables in source
	  files

2008-06-12 16:38  Code_Saturne development team <saturne-support@edf.fr>

	* [r297] bin/lance: Modification of the PBS card for a better
	  parsing and minor corrections

2008-06-11 18:26  Code_Saturne development team <saturne-support@edf.fr>

	* [r296] Changelog, src/fuel/futsvi.F: Bug correction on an usued
	  static array in FORTRAN

2008-06-11 18:00  Code_Saturne development team <saturne-support@edf.fr>

	* [r295] Changelog, src/base/alelap.F, src/base/calhyd.F,
	  src/base/codits.F, src/base/covofi.F, src/base/distpr.F,
	  src/base/distyp.F, src/base/invers.F, src/base/memale.F,
	  src/base/memdis.F, src/base/memdyp.F, src/base/memkep.F,
	  src/base/memkom.F, src/base/memnav.F, src/base/memrij.F,
	  src/base/memsca.F, src/base/memv2f.F, src/base/navsto.F,
	  src/base/preduv.F, src/base/reseps.F, src/base/resolp.F,
	  src/base/resrij.F, src/base/resssg.F, src/base/resv2f.F,
	  src/base/scalai.F, src/base/tridim.F, src/base/turbke.F,
	  src/base/turbkw.F, src/base/turrij.F, src/cfbl/cfcdts.F,
	  src/cfbl/cfener.F, src/cfbl/cfmsvl.F, src/cfbl/cfqdmv.F,
	  src/cfbl/memcfm.F, src/lagr/lageqp.F, src/lagr/lagpoi.F,
	  src/rayt/memra2.F, src/rayt/raydom.F, src/rayt/raypun.F,
	  src/rayt/raysol.F: Removing unused arrays related to multigrid
	  algorithm

2008-06-10 12:42  Code_Saturne development team <saturne-support@edf.fr>

	* [r288] include/base/cs_multigrid.h, src/base/calhyd.F,
	  src/base/codits.F, src/base/cs_multigrid.c, src/base/distpr.F,
	  src/base/invers.F, src/base/resolp.F, src/cfbl/cfcdts.F: Removing
	  unused argument on the number of grids with the multigrid
	  algorithm

2008-06-04 16:29  Code_Saturne development team <saturne-support@edf.fr>

	* [r287] include/base/paramx.h, src/base/iniini.F: Removing unused
	  commons needed by the former multigrid algorithm

2008-06-04 16:26  Code_Saturne development team <saturne-support@edf.fr>

	* [r286] TODO: Updating TODO

2008-06-04 16:24  Code_Saturne development team <saturne-support@edf.fr>

	* [r285] bin/macros_Blue_Gene_L.mk, bin/macros_Darwin.mk,
	  bin/macros_Linux.mk, bin/macros_Linux_CCRT.mk,
	  bin/macros_Linux_Ch.mk, bin/macros_Linux_IA64.mk,
	  bin/macros_Linux_x86_64.mk: Updating the macros files accordingly
	  with the suppression of some deprecated multigrid algorithm
	  files.

2008-06-04 16:22  Code_Saturne development team <saturne-support@edf.fr>

	* [r284] src/base/prcpol.F[DEL]: Removing unused routine due to
	  multigrid algorithm developments

2008-05-30 17:22  Code_Saturne development team <saturne-support@edf.fr>

	* [r283] doc/USER/latex/saturne1.tex: Minor correction on
	  documentation

2008-05-30 16:13  Code_Saturne development team <saturne-support@edf.fr>

	* [r282] Changelog: Updating Changelog

2008-05-30 16:11  Code_Saturne development team <saturne-support@edf.fr>

	* [r281] bin/Makefile, bin/lance_install,
	  bin/macros_Linux_x86_64.mk: Modification of Code_Saturne
	  compilation with the ElectricFence library.

2008-05-30 15:45  Code_Saturne development team <saturne-support@edf.fr>

	* [r280] Changelog, doc/USER/latex/saturne2.tex,
	  include/base/cs_grid.h, include/base/cs_multigrid.h,
	  include/base/cs_prototypes.h, include/base/cs_sles.h,
	  include/base/mltgrd.h[DEL], include/base/optcal.h,
	  src/base/autmgr.F, src/base/calgeo.F, src/base/calgrg.F[DEL],
	  src/base/cgstab.F[DEL], src/base/clmlga.F[DEL],
	  src/base/codits.F, src/base/crstgr.F, src/base/cs_grid.c,
	  src/base/cs_main.c, src/base/cs_multigrid.c, src/base/cs_sles.c,
	  src/base/cycmgr.F[DEL], src/base/gradco.F[DEL],
	  src/base/impini.F, src/base/iniini.F, src/base/invers.F,
	  src/base/jacobi.F[DEL], src/base/memgrg.F[DEL],
	  src/base/mempgr.F[DEL], src/base/modini.F,
	  src/base/premgr.F[DEL], src/base/prolon.F[DEL],
	  src/base/resmgr.F[DEL], src/base/resolp.F, src/base/verini.F,
	  src/cfbl/cfcdts.F, users/base/usini1.F, users/base/ustmgr.F:
	  Modification of the algebric multigrid algorithm adapted to the
	  resolution of pressure equation. The algorithm works in serial
	  and parallel runs.

2008-05-29 16:07  Code_Saturne development team <saturne-support@edf.fr>

	* [r279] Changelog, include/base/cs_base.h,
	  include/base/cs_parall.h, include/base/memoir.h[DEL],
	  src/base/caltri.F, src/base/cs_base.c, src/base/cs_main.c,
	  src/base/cs_parall.c, src/base/iasize.F[DEL], src/base/memini.F,
	  src/base/rasize.F[DEL]: Translating memory checking from FORTRAN
	  to C.

2008-05-29 15:45  Code_Saturne development team <saturne-support@edf.fr>

	* [r278] Changelog, bin/lance, bin/lance.help,
	  doc/USER/latex/saturne1.tex, include/base/cs_opts.h,
	  include/base/dimens.h, include/base/memoir.h, src/base/caltri.F,
	  src/base/cs_gui.c, src/base/cs_main.c, src/base/cs_opts.c,
	  src/base/impini.F, src/base/iniini.F, src/base/initi1.F,
	  src/base/iniusi.F, src/base/memini.F, users/base/usini1.F,
	  users/base/ustbus.F[DEL]: The size of the work arrays IA and RA
	  is now defined with a FORTRAN user file and no more via the
	  scripts, making them independent of the number of sub-domains in
	  case of a parallel run.

2008-05-29 13:40  Code_Saturne development team <saturne-support@edf.fr>

	* [r277] Changelog, include/base/cs_base.h,
	  include/base/cs_calcium.h, include/base/cs_opts.h,
	  include/base/cs_proxy_comm.h, src/base/cs_base.c,
	  src/base/cs_calcium.c, src/base/cs_main.c, src/base/cs_opts.c,
	  src/base/cs_proxy_comm.c: Adding communications with a proxy, in
	  order to prepare the Code_Saturne/Code_Aster coupling via
	  Salome/YACS

2008-05-29 12:15  Code_Saturne development team <saturne-support@edf.fr>

	* [r276] Changelog, include/base/cs_mesh.h, include/base/cs_post.h,
	  src/base/cs_main.c, src/base/cs_mesh.c,
	  src/base/cs_mesh_connect.c, src/base/cs_mesh_warping.c,
	  src/base/cs_post.c, src/base/cs_suite.c, src/base/numvec.F:
	  Modification of the behaviour of renumbering.

2008-05-28 14:12  Code_Saturne development team <saturne-support@edf.fr>

	* [r275] Changelog: Updating Changelog

2008-05-28 14:09  Code_Saturne development team <saturne-support@edf.fr>

	* [r274] bin/Makefile: Removing the part of the compilation
	  specific to Foresys tools

2008-05-28 14:04  Code_Saturne development team <saturne-support@edf.fr>

	* [r273] bin/Makefile, bin/lance.help, bin/lance_install,
	  doc/USER/latex/saturne1.tex: Removing the part of the compilation
	  specific to Purify tools

[...]
	  doc/THEORY/Base/Turbke[DEL], doc/THEORY/Base/Turrij[DEL],
	  doc/THEORY/Base/Viscfa[DEL], doc/THEORY/Base/Visort[DEL],
	  doc/THEORY/Base/Vissec[DEL], doc/THEORY/Base/Vortex[DEL],
	  doc/THEORY/Cfbl/Cfbase[DEL], doc/THEORY/Cfbl/Cfener[DEL],
	  doc/THEORY/Cfbl/Cfmsvl[DEL], doc/THEORY/Cfbl/Cfqdmv[DEL],
	  doc/THEORY/Cfbl/Cfxtcl[DEL], doc/THEORY/Elec/Elbase[DEL]: Remove
	  empty tex directories

2008-02-18 13:47  Code_Saturne development team <saturne-support@edf.fr>

	* [r174] doc/THEORY/Base/Bilsc2/bilsc2.tex[DEL],
	  doc/THEORY/Base/Clptur/clptur.tex[DEL],
	  doc/THEORY/Base/Clsyvt/clsyvt.tex[DEL],
	  doc/THEORY/Base/Codits/codits.tex[DEL],
	  doc/THEORY/Base/Condli/condli.tex[DEL],
	  doc/THEORY/Base/Covofi/covofi.tex[DEL],
	  doc/THEORY/Base/Gradmc/gradmc.tex[DEL],
	  doc/THEORY/Base/Gradrc/gradrc.tex[DEL],
	  doc/THEORY/Base/Inimas/inimas.tex[DEL],
	  doc/THEORY/Base/Introd/introd.tex[DEL],
	  doc/THEORY/Base/Introd/introd_fonc.save[DEL],
	  doc/THEORY/Base/Introd/introd_fonc.tex.last[DEL],
	  doc/THEORY/Base/Itrmas/itrmas.tex[DEL],
	  doc/THEORY/Base/Matrix/matrix.tex[DEL],
	  doc/THEORY/Base/Navsto/navsto.tex[DEL],
	  doc/THEORY/Base/Preduv/preduv.tex[DEL],
	  doc/THEORY/Base/Recvmc/recvmc.tex[DEL],
	  doc/THEORY/Base/Resolp/resolp.tex[DEL],
	  doc/THEORY/Base/Turbke/turbke.tex[DEL],
	  doc/THEORY/Base/Turrij/turrij.tex[DEL],
	  doc/THEORY/Base/Viscfa/viscfa.tex[DEL],
	  doc/THEORY/Base/Visort/visort.tex[DEL],
	  doc/THEORY/Base/Vissec/vissec.tex[DEL],
	  doc/THEORY/Base/Vortex/vortex.tex[DEL],
	  doc/THEORY/Base/bilsc2.tex[CPY], doc/THEORY/Base/clptur.tex[CPY],
	  doc/THEORY/Base/clsyvt.tex[CPY], doc/THEORY/Base/codits.tex[CPY],
	  doc/THEORY/Base/condli.tex[CPY], doc/THEORY/Base/covofi.tex[CPY],
	  doc/THEORY/Base/gradmc.tex[CPY], doc/THEORY/Base/gradrc.tex[CPY],
	  doc/THEORY/Base/inimas.tex[CPY], doc/THEORY/Base/introd.tex[CPY],
	  doc/THEORY/Base/introd_fonc.save[CPY],
	  doc/THEORY/Base/introd_fonc.tex.last[CPY],
	  doc/THEORY/Base/itrmas.tex[CPY], doc/THEORY/Base/matrix.tex[CPY],
	  doc/THEORY/Base/navsto.tex[CPY], doc/THEORY/Base/preduv.tex[CPY],
	  doc/THEORY/Base/recvmc.tex[CPY], doc/THEORY/Base/resolp.tex[CPY],
	  doc/THEORY/Base/turbke.tex[CPY], doc/THEORY/Base/turrij.tex[CPY],
	  doc/THEORY/Base/viscfa.tex[CPY], doc/THEORY/Base/visort.tex[CPY],
	  doc/THEORY/Base/vissec.tex[CPY], doc/THEORY/Base/vortex.tex[CPY],
	  doc/THEORY/Cfbl/Cfbase/cfbase.tex[DEL],
	  doc/THEORY/Cfbl/Cfener/cfener.tex[DEL],
	  doc/THEORY/Cfbl/Cfmsvl/cfmsvl.tex[DEL],
	  doc/THEORY/Cfbl/Cfqdmv/cfqdmv.tex[DEL],
	  doc/THEORY/Cfbl/Cfxtcl/cfxtcl.tex[DEL],
	  doc/THEORY/Cfbl/cfbase.tex[CPY], doc/THEORY/Cfbl/cfener.tex[CPY],
	  doc/THEORY/Cfbl/cfmsvl.tex[CPY], doc/THEORY/Cfbl/cfqdmv.tex[CPY],
	  doc/THEORY/Cfbl/cfxtcl.tex[CPY],
	  doc/THEORY/Elec/Elbase/elbase.tex[DEL],
	  doc/THEORY/Elec/elbase.tex[CPY]: Move the theory tex files in
	  upper directories

2008-02-18 13:30  Code_Saturne development team <saturne-support@edf.fr>

	* [r173] doc/THEORY/Base/Bilsc2/Images[DEL],
	  doc/THEORY/Base/Bilsc2/bilsc2.tex,
	  doc/THEORY/Base/Clptur/Images[DEL],
	  doc/THEORY/Base/Clptur/clptur.tex,
	  doc/THEORY/Base/Clsyvt/Images[DEL],
	  doc/THEORY/Base/Clsyvt/clsyvt.tex,
	  doc/THEORY/Base/Codits/Images[DEL],
	  doc/THEORY/Base/Codits/codits.tex,
	  doc/THEORY/Base/Condli/Images[DEL],
	  doc/THEORY/Base/Condli/condli.tex,
	  doc/THEORY/Base/Covofi/Images[DEL],
	  doc/THEORY/Base/Covofi/covofi.tex,
	  doc/THEORY/Base/Gradmc/Images[DEL],
	  doc/THEORY/Base/Gradmc/gradmc.tex,
	  doc/THEORY/Base/Gradrc/Images[DEL],
	  doc/THEORY/Base/Gradrc/gradrc.tex,
	  doc/THEORY/Base/Inimas/Images[DEL],
	  doc/THEORY/Base/Inimas/inimas.tex,
	  doc/THEORY/Base/Introd/Images[DEL],
	  doc/THEORY/Base/Introd/introd.tex,
	  doc/THEORY/Base/Itrmas/Images[DEL],
	  doc/THEORY/Base/Itrmas/itrmas.tex,
	  doc/THEORY/Base/Matrix/Images[DEL],
	  doc/THEORY/Base/Matrix/matrix.tex,
	  doc/THEORY/Base/Navsto/Images[DEL],
	  doc/THEORY/Base/Navsto/navsto.tex,
	  doc/THEORY/Base/Preduv/Images[DEL],
	  doc/THEORY/Base/Viscfa/Images[DEL],
	  doc/THEORY/Base/Viscfa/viscfa.tex,
	  doc/THEORY/Base/Visort/Images[DEL],
	  doc/THEORY/Base/Visort/visort.tex,
	  doc/THEORY/Base/Vissec/Images[DEL],
	  doc/THEORY/Base/Vortex/Images[DEL],
	  doc/THEORY/Base/Vortex/vortex.tex,
	  doc/THEORY/Cfbl/Cfbase/Images[DEL],
	  doc/THEORY/Cfbl/Cfener/Images[DEL],
	  doc/THEORY/Cfbl/Cfmsvl/Images[DEL],
	  doc/THEORY/Cfbl/Cfqdmv/Images[DEL],
	  doc/THEORY/Cfbl/Cfxtcl/Images[DEL],
	  doc/THEORY/Cfbl/Cfxtcl/cfxtcl.tex, doc/THEORY/graphics,
	  doc/THEORY/graphics/Makefile, doc/THEORY/graphics/bordortho.fig,
	  doc/THEORY/graphics/clthermique.dat,
	  doc/THEORY/graphics/clthermique.f,
	  doc/THEORY/graphics/clthermique.pdf,
	  doc/THEORY/graphics/clthermique.xmgr,
	  doc/THEORY/graphics/condlimite.fig,
	  doc/THEORY/graphics/domaine1d.fig,
	  doc/THEORY/graphics/entree.fig, doc/THEORY/graphics/facebord.fig,
	  doc/THEORY/graphics/facesym.fig, doc/THEORY/graphics/facette.fig,
	  doc/THEORY/graphics/fluxbord.fig, doc/THEORY/graphics/loilog.f,
	  doc/THEORY/graphics/loilog.pdf, doc/THEORY/graphics/loilog.xmgr,
	  doc/THEORY/graphics/support.fig, doc/THEORY/latex/theory.tex:
	  Move the graphics directories in order to have a unique place to
	  locate the graphics

2008-02-18 13:00  Code_Saturne development team <saturne-support@edf.fr>

	* [r172] doc/THEORY/Base/Bilsc2/bilsc2.tex,
	  doc/THEORY/Base/Bilsc2/disc.tex[DEL],
	  doc/THEORY/Base/Bilsc2/fonc.tex[DEL],
	  doc/THEORY/Base/Bilsc2/mioe.tex[DEL],
	  doc/THEORY/Base/Clptur/clptur.tex,
	  doc/THEORY/Base/Clptur/disc.tex[DEL],
	  doc/THEORY/Base/Clptur/fonc.tex[DEL],
	  doc/THEORY/Base/Clptur/mioe.tex[DEL],
	  doc/THEORY/Base/Clsyvt/clsyvt.tex,
	  doc/THEORY/Base/Clsyvt/disc.tex[DEL],
	  doc/THEORY/Base/Clsyvt/fonc.tex[DEL],
	  doc/THEORY/Base/Clsyvt/mioe.tex[DEL],
	  doc/THEORY/Base/Codits/codits.tex,
	  doc/THEORY/Base/Codits/disc.tex[DEL],
	  doc/THEORY/Base/Codits/fonc.tex[DEL],
	  doc/THEORY/Base/Codits/mioe.tex[DEL],
	  doc/THEORY/Base/Condli/condli.tex,
	  doc/THEORY/Base/Condli/disc.tex[DEL],
	  doc/THEORY/Base/Condli/fonc.tex[DEL],
	  doc/THEORY/Base/Condli/mioe.tex[DEL],
	  doc/THEORY/Base/Covofi/covofi.tex,
	  doc/THEORY/Base/Covofi/disc.tex[DEL],
	  doc/THEORY/Base/Covofi/fonc.tex[DEL],
	  doc/THEORY/Base/Covofi/mioe.tex[DEL],
	  doc/THEORY/Base/Gradmc/disc.tex[DEL],
	  doc/THEORY/Base/Gradmc/fonc.tex[DEL],
	  doc/THEORY/Base/Gradmc/gradmc.tex,
	  doc/THEORY/Base/Gradmc/mioe.tex[DEL],
	  doc/THEORY/Base/Gradrc/disc.tex[DEL],
	  doc/THEORY/Base/Gradrc/fonc.tex[DEL],
	  doc/THEORY/Base/Gradrc/gradrc.tex,
	  doc/THEORY/Base/Gradrc/mioe.tex[DEL],
	  doc/THEORY/Base/Inimas/disc.tex[DEL],
	  doc/THEORY/Base/Inimas/fonc.tex[DEL],
	  doc/THEORY/Base/Inimas/inimas.tex,
	  doc/THEORY/Base/Inimas/mioe.tex[DEL],
	  doc/THEORY/Base/Introd/disc.tex[DEL],
	  doc/THEORY/Base/Introd/fonc.save[DEL],
	  doc/THEORY/Base/Introd/fonc.tex[DEL],
	  doc/THEORY/Base/Introd/fonc.tex.last[DEL],
	  doc/THEORY/Base/Introd/introd.tex,
	  doc/THEORY/Base/Introd/introd_fonc.save[CPY],
	  doc/THEORY/Base/Introd/introd_fonc.tex.last[CPY],
	  doc/THEORY/Base/Introd/mioe.tex[DEL],
	  doc/THEORY/Base/Itrmas/disc.tex[DEL],
	  doc/THEORY/Base/Itrmas/fonc.tex[DEL],
	  doc/THEORY/Base/Itrmas/itrmas.tex,
	  doc/THEORY/Base/Itrmas/mioe.tex[DEL],
	  doc/THEORY/Base/Matrix/disc.tex[DEL],
	  doc/THEORY/Base/Matrix/fonc.tex[DEL],
	  doc/THEORY/Base/Matrix/matrix.tex,
	  doc/THEORY/Base/Matrix/mioe.tex[DEL],
	  doc/THEORY/Base/Navsto/disc.tex[DEL],
	  doc/THEORY/Base/Navsto/fonc.tex[DEL],
	  doc/THEORY/Base/Navsto/mioe.tex[DEL],
	  doc/THEORY/Base/Navsto/navsto.tex,
	  doc/THEORY/Base/Preduv/disc.tex[DEL],
	  doc/THEORY/Base/Preduv/fonc.tex[DEL],
	  doc/THEORY/Base/Preduv/mioe.tex[DEL],
	  doc/THEORY/Base/Preduv/preduv.tex,
	  doc/THEORY/Base/Recvmc/disc.tex[DEL],
	  doc/THEORY/Base/Recvmc/fonc.tex[DEL],
	  doc/THEORY/Base/Recvmc/mioe.tex[DEL],
	  doc/THEORY/Base/Recvmc/recvmc.tex,
	  doc/THEORY/Base/Resolp/disc.tex[DEL],
	  doc/THEORY/Base/Resolp/fonc.tex[DEL],
	  doc/THEORY/Base/Resolp/mioe.tex[DEL],
	  doc/THEORY/Base/Resolp/resolp.tex,
	  doc/THEORY/Base/Turbke/disc.tex[DEL],
	  doc/THEORY/Base/Turbke/fonc.tex[DEL],
	  doc/THEORY/Base/Turbke/mioe.tex[DEL],
	  doc/THEORY/Base/Turbke/turbke.tex,
	  doc/THEORY/Base/Turrij/disc.tex[DEL],
	  doc/THEORY/Base/Turrij/fonc.tex[DEL],
	  doc/THEORY/Base/Turrij/mioe.tex[DEL],
	  doc/THEORY/Base/Turrij/turrij.tex,
	  doc/THEORY/Base/Viscfa/disc.tex[DEL],
	  doc/THEORY/Base/Viscfa/fonc.tex[DEL],
	  doc/THEORY/Base/Viscfa/mioe.tex[DEL],
	  doc/THEORY/Base/Viscfa/viscfa.tex,
	  doc/THEORY/Base/Visort/disc.tex[DEL],
	  doc/THEORY/Base/Visort/fonc.tex[DEL],
	  doc/THEORY/Base/Visort/mioe.tex[DEL],
	  doc/THEORY/Base/Visort/visort.tex,
	  doc/THEORY/Base/Vissec/disc.tex[DEL],
	  doc/THEORY/Base/Vissec/fonc.tex[DEL],
	  doc/THEORY/Base/Vissec/mioe.tex[DEL],
	  doc/THEORY/Base/Vissec/vissec.tex,
	  doc/THEORY/Base/Vortex/disc.tex[DEL],
	  doc/THEORY/Base/Vortex/fonc.tex[DEL],
	  doc/THEORY/Base/Vortex/mioe.tex[DEL],
	  doc/THEORY/Base/Vortex/vortex.tex,
	  doc/THEORY/Cfbl/Cfbase/cfbase.tex,
	  doc/THEORY/Cfbl/Cfbase/disc.tex[DEL],
	  doc/THEORY/Cfbl/Cfbase/fonc.tex[DEL],
	  doc/THEORY/Cfbl/Cfbase/mioe.tex[DEL],
	  doc/THEORY/Cfbl/Cfener/cfener.tex,
	  doc/THEORY/Cfbl/Cfener/disc.tex[DEL],
	  doc/THEORY/Cfbl/Cfener/fonc.tex[DEL],
	  doc/THEORY/Cfbl/Cfener/fonc.tex.sav[DEL],
	  doc/THEORY/Cfbl/Cfener/mioe.tex[DEL],
	  doc/THEORY/Cfbl/Cfmsvl/cfmsvl.tex,
	  doc/THEORY/Cfbl/Cfmsvl/disc.tex[DEL],
	  doc/THEORY/Cfbl/Cfmsvl/fonc.tex[DEL],
	  doc/THEORY/Cfbl/Cfmsvl/mioe.tex[DEL],
	  doc/THEORY/Cfbl/Cfqdmv/cfqdmv.tex,
	  doc/THEORY/Cfbl/Cfqdmv/disc.tex[DEL],
	  doc/THEORY/Cfbl/Cfqdmv/fonc.tex[DEL],
	  doc/THEORY/Cfbl/Cfqdmv/fonc.tex.sav[DEL],
	  doc/THEORY/Cfbl/Cfqdmv/mioe.tex[DEL],
	  doc/THEORY/Cfbl/Cfxtcl/cfxtcl.tex,
	  doc/THEORY/Cfbl/Cfxtcl/disc.tex[DEL],
	  doc/THEORY/Cfbl/Cfxtcl/fonc.tex[DEL],
	  doc/THEORY/Cfbl/Cfxtcl/mioe.tex[DEL],
	  doc/THEORY/Combustion/combustion.tex[CPY],
	  doc/THEORY/Combustion/fonc.tex[DEL],
	  doc/THEORY/Elec/Elbase/disc.tex[DEL],
	  doc/THEORY/Elec/Elbase/elbase.tex,
	  doc/THEORY/Elec/Elbase/fonc.tex[DEL],
	  doc/THEORY/Elec/Elbase/mioe.tex[DEL]: Merge the description,
	  discretization and implementation files in the theory and
	  developper guide

2008-02-15 13:42  Code_Saturne development team <saturne-support@edf.fr>

	* [r171] doc/THEORY/Makefile, doc/TUTORIAL/Makefile,
	  doc/USER/Makefile: Update the documentations Makefiles

2008-02-15 13:30  Code_Saturne development team <saturne-support@edf.fr>

	* [r170] doc/THEORY/input/logocs.png[DEL],
	  doc/THEORY/input/logoedf.pdf[DEL],
	  doc/TUTORIAL/input/Makefile[DEL],
	  doc/TUTORIAL/input/logocs.png[DEL],
	  doc/TUTORIAL/input/logoedf.pdf[DEL],
	  doc/USER/input/Makefile[DEL], doc/USER/input/logocs.png[DEL],
	  doc/USER/input/logoedf.pdf[DEL], doc/style/csdoc.sty,
	  doc/style/logocs.png, doc/style/logoedf.png: Centralize the EDF
	  and CS logos in the style directory

2008-02-13 14:35  Code_Saturne development team <saturne-support@edf.fr>

	* [r169] doc/USER/input/logoedf.pdf: Corrected corrupted binary
	  file

2008-02-12 16:35  Code_Saturne development team <saturne-support@edf.fr>

	* [r168] doc/USER/readme[DEL]: Deleting a no more necessary file
	  for old fashion of compiling the user manual

2008-02-12 15:07  Code_Saturne development team <saturne-support@edf.fr>

	* [r167] src/base/vorini.F: Correction on uninitialized values in
	  the vortex method with ICAS=4

2008-02-12 14:35  Code_Saturne development team <saturne-support@edf.fr>

	* [r166] src/base/caltri.F, src/lagr/lagcel.F, src/lagr/lagesp.F,
	  src/lagr/lagopt.F, src/lagr/lagune.F, src/lagr/memla2.F,
	  src/lagr/ouestu.F, users/lagr/uslag1.F: Lagrangian module: -
	  global allocation of an auxilliary array (instead of local) -
	  several fixes

2008-02-12 14:32  Code_Saturne development team <saturne-support@edf.fr>

	* [r165] src/base/cs_syr_coupling.c: Code cleaning, suppression of
	  unused variables

2008-02-12 14:00  Code_Saturne development team <saturne-support@edf.fr>

	* [r164] bin/cs_profile: Suppression of OSF1 system and creation of
	  EDF container on the CCRT super-computers

2008-02-12 13:58  Code_Saturne development team <saturne-support@edf.fr>

	* [r163] src/cplv/cpcym2.F: Bug fix for coal combustion

2008-02-07 18:53  Code_Saturne development team <saturne-support@edf.fr>

	* [r162] include/base/cs_perio.h, include/base/paramx.h: Keep the
	  consistency between the maximum number of phases in cs_perio.h
	  and paramx.h (both are set to 1 at the moment). A comment has
	  been written in both files.

2008-02-07 18:46  Code_Saturne development team <saturne-support@edf.fr>

	* [r161] Changelog, TODO: Updating TODO file

2008-02-07 18:43  Code_Saturne development team <saturne-support@edf.fr>

	* [r160] src/base/cs_sles.c: Removing trailing blanks

2008-02-07 18:41  Code_Saturne development team <saturne-support@edf.fr>

	* [r159] AUTHORS: Updating AUTHORS file

2008-02-07 18:39  Code_Saturne development team <saturne-support@edf.fr>

	* [r158] src/base/cs_gui.c, users/base/usini1.F: Bug fixes that
	  arouse when asking for mean values of combustion variables within
	  the GUI Update of usini1 user file Cosmetic corrections and
	  suppression of unused functions

2008-02-07 18:30  Code_Saturne development team <saturne-support@edf.fr>

	* [r157] users/elec/uselrc.F: Minor correction on a null string to
	  avoid warnings from compilers

2008-02-07 18:29  Code_Saturne development team <saturne-support@edf.fr>

	* [r156] users/base/usvort.F: Inversion in the arguments of the
	  user function PHIDAT, accordingly to how it is called in the
	  kernel

2008-02-07 18:23  Code_Saturne development team <saturne-support@edf.fr>

	* [r155] src/lagr/laglec.F, src/lagr/lagout.F: Bug fixes when
	  reading a sequel file in lagrangian mode

2008-02-07 18:21  Code_Saturne development team <saturne-support@edf.fr>

	* [r154] src/base/cs_matrix.c, src/base/cs_sles.c: Variant for
	  Intel compiler and on Itanium only (optimizations by BULL)

2008-02-07 18:18  Code_Saturne development team <saturne-support@edf.fr>

	* [r153] src/base/cs_post.c: Wrong affectation for last element in
	  an array

2008-02-07 18:16  Code_Saturne development team <saturne-support@edf.fr>

	* [r152] src/base/cs_syr_coupling.c: Removing tabulations and
	  trailing white spaces

2008-02-07 18:16  Code_Saturne development team <saturne-support@edf.fr>

	* [r151] src/lagr/cs_lagrang.c: Removing tabulations and trailing
	  white spaces

2008-01-14 18:01  Code_Saturne development team <saturne-support@edf.fr>

	* [r150] bin/lance, doc/USER/latex/saturne1.tex: Renaming the
	  Preprocessor listing from listenv to listpre

2008-01-14 18:00  Code_Saturne development team <saturne-support@edf.fr>

	* [r149] bin/lance_install: Protection of the arch directory when
	  compiling a new version of the kernel

2008-01-14 17:48  Code_Saturne development team <saturne-support@edf.fr>

	* [r148] doc/USER/graphics/halo.pdf[DEL],
	  doc/USER/graphics/vortex.pdf[DEL]: Deletion of two PDF files
	  generated automatically during the compilation of the user manual

2008-01-14 17:44  Code_Saturne development team <saturne-support@edf.fr>

	* [r147] bin/Makefile: Makefile correction when the target is LINK

2008-01-14 17:16  Code_Saturne development team <saturne-support@edf.fr>

	* [r146] include/base/cs_base.h, src/lagr/cs_lagrang.c: Correction
	  in the macro definition of the keyword inline

2008-01-14 12:48  Code_Saturne development team <saturne-support@edf.fr>

	* [r145] src/base/cs_syr_coupling.c: Bug fix in face renumbering
	  and ponderation algorithm improvement

2008-01-14 12:47  Code_Saturne development team <saturne-support@edf.fr>

	* [r144] src/base/cs_syr_messages.c: Minor bug fix: missing
	  argument in printf function

2008-01-08 12:52  Code_Saturne development team <saturne-support@edf.fr>

	* [r143] bin/Makefile, bin/compiler_version, bin/cree_sat,
	  bin/gracehst, bin/grp: Portability improvement and minor bug fix
	  (thanks to Thierry Thomas for these ones)

2008-01-07 18:26  Code_Saturne development team <saturne-support@edf.fr>

	* [r142] doc/THEORY/Base/Bilsc2/disc.tex,
	  doc/THEORY/Base/Bilsc2/fonc.tex, doc/THEORY/Base/Bilsc2/mioe.tex,
	  doc/THEORY/Base/Clptur/disc.tex, doc/THEORY/Base/Clptur/fonc.tex,
	  doc/THEORY/Base/Clptur/mioe.tex, doc/THEORY/Base/Clsyvt/disc.tex,
	  doc/THEORY/Base/Clsyvt/fonc.tex, doc/THEORY/Base/Clsyvt/mioe.tex,
	  doc/THEORY/Base/Codits/disc.tex, doc/THEORY/Base/Codits/fonc.tex,
	  doc/THEORY/Base/Codits/mioe.tex, doc/THEORY/Base/Condli/disc.tex,
	  doc/THEORY/Base/Condli/fonc.tex, doc/THEORY/Base/Condli/mioe.tex,
	  doc/THEORY/Base/Covofi/disc.tex, doc/THEORY/Base/Covofi/fonc.tex,
	  doc/THEORY/Base/Covofi/mioe.tex, doc/THEORY/Base/Gradmc/disc.tex,
	  doc/THEORY/Base/Gradmc/fonc.tex, doc/THEORY/Base/Gradmc/mioe.tex,
	  doc/THEORY/Base/Gradrc/disc.tex, doc/THEORY/Base/Gradrc/fonc.tex,
	  doc/THEORY/Base/Gradrc/mioe.tex, doc/THEORY/Base/Inimas/disc.tex,
	  doc/THEORY/Base/Inimas/fonc.tex, doc/THEORY/Base/Inimas/mioe.tex,
	  doc/THEORY/Base/Introd/disc.tex, doc/THEORY/Base/Introd/fonc.tex,
	  doc/THEORY/Base/Introd/mioe.tex, doc/THEORY/Base/Itrmas/disc.tex,
	  doc/THEORY/Base/Itrmas/fonc.tex, doc/THEORY/Base/Itrmas/mioe.tex,
	  doc/THEORY/Base/Matrix/disc.tex, doc/THEORY/Base/Matrix/fonc.tex,
	  doc/THEORY/Base/Matrix/mioe.tex, doc/THEORY/Base/Navsto/disc.tex,
	  doc/THEORY/Base/Navsto/fonc.tex, doc/THEORY/Base/Navsto/mioe.tex,
	  doc/THEORY/Base/Preduv/disc.tex, doc/THEORY/Base/Preduv/fonc.tex,
	  doc/THEORY/Base/Preduv/mioe.tex, doc/THEORY/Base/Recvmc/disc.tex,
	  doc/THEORY/Base/Recvmc/fonc.tex, doc/THEORY/Base/Recvmc/mioe.tex,
	  doc/THEORY/Base/Resolp/disc.tex, doc/THEORY/Base/Resolp/fonc.tex,
	  doc/THEORY/Base/Resolp/mioe.tex, doc/THEORY/Base/Turbke/disc.tex,
	  doc/THEORY/Base/Turbke/fonc.tex, doc/THEORY/Base/Turbke/mioe.tex,
	  doc/THEORY/Base/Turrij/disc.tex, doc/THEORY/Base/Turrij/fonc.tex,
	  doc/THEORY/Base/Turrij/mioe.tex, doc/THEORY/Base/Viscfa/disc.tex,
	  doc/THEORY/Base/Viscfa/fonc.tex, doc/THEORY/Base/Viscfa/mioe.tex,
	  doc/THEORY/Base/Visort/disc.tex, doc/THEORY/Base/Visort/fonc.tex,
	  doc/THEORY/Base/Visort/mioe.tex, doc/THEORY/Base/Vissec/disc.tex,
	  doc/THEORY/Base/Vissec/fonc.tex, doc/THEORY/Base/Vissec/mioe.tex,
	  doc/THEORY/Base/Vortex/disc.tex, doc/THEORY/Base/Vortex/fonc.tex,
	  doc/THEORY/Base/Vortex/mioe.tex, doc/THEORY/Cfbl/Cfbase/disc.tex,
	  doc/THEORY/Cfbl/Cfbase/fonc.tex, doc/THEORY/Cfbl/Cfbase/mioe.tex,
	  doc/THEORY/Cfbl/Cfener/disc.tex, doc/THEORY/Cfbl/Cfener/fonc.tex,
	  doc/THEORY/Cfbl/Cfener/mioe.tex, doc/THEORY/Cfbl/Cfmsvl/disc.tex,
	  doc/THEORY/Cfbl/Cfmsvl/fonc.tex, doc/THEORY/Cfbl/Cfmsvl/mioe.tex,
	  doc/THEORY/Cfbl/Cfqdmv/disc.tex, doc/THEORY/Cfbl/Cfqdmv/fonc.tex,
	  doc/THEORY/Cfbl/Cfqdmv/mioe.tex, doc/THEORY/Cfbl/Cfxtcl/disc.tex,
	  doc/THEORY/Cfbl/Cfxtcl/fonc.tex, doc/THEORY/Cfbl/Cfxtcl/mioe.tex,
	  doc/THEORY/Combustion/fonc.tex, doc/THEORY/Elec/Elbase/disc.tex,
	  doc/THEORY/Elec/Elbase/fonc.tex, doc/THEORY/Elec/Elbase/mioe.tex,
	  doc/THEORY/latex/summary.tex, doc/THEORY/latex/theory.tex,
	  doc/TUTORIAL/latex/case1.tex, doc/TUTORIAL/latex/case2.tex,
	  doc/TUTORIAL/latex/case3.tex, doc/TUTORIAL/latex/case4.tex,
	  doc/TUTORIAL/latex/case5.tex, doc/TUTORIAL/latex/intro.tex,
	  doc/TUTORIAL/latex/tuto_case1.tex,
	  doc/TUTORIAL/latex/tuto_case2.tex,
	  doc/TUTORIAL/latex/tuto_case3.tex,
	  doc/TUTORIAL/latex/tuto_case4.tex,
	  doc/TUTORIAL/latex/tuto_case5.tex,
	  doc/TUTORIAL/latex/tutorial.tex, doc/USER/latex/a1_autovalid.tex,
	  doc/USER/latex/ale.tex, doc/USER/latex/biblio.tex,
	  doc/USER/latex/saturne1.tex, doc/USER/latex/saturne2.tex,
	  doc/USER/latex/summary.tex, doc/USER/latex/user.tex: Minor
	  changes : trailing spaces suppression, tabulations replacement
	  and DOS EOL character suppression

