
2012-01-13: Release of Code_Saturne version 2.1.4.
2011-12-30: Release of Code_Saturne version 2.1.3.
2011-12-28: Release of Code_Saturne version 2.1.2.
2011-12-13: Release of Code_Saturne version 2.1.1.
2011-10-19: Release of Code_Saturne version 2.1.0.

2011-07-19: Release of Code_Saturne version 2.0.2.
2011-01-17: Release of Code_Saturne version 2.0.1.
2010-08-20: Release of Code_Saturne version 2.0.0.
2010-06-22: Release of Code_Saturne version 2.0.0-rc2
2010-02-19: Release of Code_Saturne version 2.0.0-rc1
2009-07-29: Release of Code_Saturne version 2.0.0-beta2
2009-05-26: Release of Code_Saturne version 2.0.0-beta1

2008-11-28: Release of Code_Saturne version 1.4.0
2008-08-22: Release of Code_Saturne version 1.4.b
2008-06-17: Release of Code_Saturne version 1.4.a

2008-11-27: Release of Code_Saturne version 1.3.3
2008-04-16: Release of Code_Saturne version 1.3.2
2007-11-28: Release of Code_Saturne version 1.3.1
2007-08-02: Release of Code_Saturne version 1.3.0
