QUALITY ASSURANCE
=================
This version of Code_Saturne is a production version that
has been validated under EDF quality assurance.
