QUALITY ASSURANCE
=================
This version of Code_Saturne has been developed
under EDF quality assurance.

