QUALITY ASSURANCE
=================
This version of Code_Saturne has been developed
under EDF quality assurance.

The "beta" status will be removed at the end of the validation stage.
