QUALITY ASSURANCE
=================
This version of Code_Saturne has been developed and validated
under EDF quality assurance.
