QUALITY ASSURANCE
=================
This version of Code_Saturne has been developped and validated
under EDF quality assurance.
