/home/panos/Runs/LAGR/RUN_LAGR_POINT_SOURCE_DISPERSION_ANISO/LAGR_POINT_SOURCE_DISPERSION_ANISO/FLUID/RESU/fluid/src/cs_meg_volume_function.c: In function ‘cs_meg_volume_function’:
/home/panos/Runs/LAGR/RUN_LAGR_POINT_SOURCE_DISPERSION_ANISO/LAGR_POINT_SOURCE_DISPERSION_ANISO/FLUID/RESU/fluid/src/cs_meg_volume_function.c:43:17: warning: unused variable ‘c_id’ [-Wunused-variable]
   43 |       cs_lnum_t c_id = zone->elt_ids[e_id];
      |                 ^~~~
/home/panos/Runs/LAGR/RUN_LAGR_POINT_SOURCE_DISPERSION_ANISO/LAGR_POINT_SOURCE_DISPERSION_ANISO/FLUID/RESU/fluid/src/cs_meg_volume_function.c:41:15: warning: variable ‘mesh_viscosity_1’ set but not used [-Wunused-but-set-variable]
   41 |     cs_real_t mesh_viscosity_1 = -1.;
      |               ^~~~~~~~~~~~~~~~
/home/panos/Runs/LAGR/RUN_LAGR_POINT_SOURCE_DISPERSION_ANISO/LAGR_POINT_SOURCE_DISPERSION_ANISO/FLUID/RESU/fluid/src/cs_meg_initialization.c: In function ‘cs_meg_initialization’:
/home/panos/Runs/LAGR/RUN_LAGR_POINT_SOURCE_DISPERSION_ANISO/LAGR_POINT_SOURCE_DISPERSION_ANISO/FLUID/RESU/fluid/src/cs_meg_initialization.c:48:17: warning: unused variable ‘c_id’ [-Wunused-variable]
   48 |       cs_lnum_t c_id = zone->elt_ids[e_id];
      |                 ^~~~
/usr/bin/mpicc -DHAVE_CONFIG_H -I/home/panos/Applications/Code_Saturne/code_saturne-lagr/arch/Linux_x86_64/include -I/home/panos/Applications/Code_Saturne/code_saturne-lagr/arch/Linux_x86_64/include/code_saturne -I/home/panos/Development/Code_Saturne_LAGR/../Code_Saturne/Libraries/CGNS/include -I/home/panos/Development/Code_Saturne_LAGR/../Code_Saturne/Libraries/MED/include -I/home/panos/Development/Code_Saturne_LAGR/../Code_Saturne/Libraries/HDF5/include -I/home/panos/Development/Code_Saturne_LAGR/../Code_Saturne/Libraries/PARMETIS/include -I/home/panos/Development/Code_Saturne_LAGR/../Code_Saturne/Libraries/SCOTCH/include -DOMPI_SKIP_MPICXX -D_POSIX_C_SOURCE=200809L -DNDEBUG -funsigned-char -W -Wall -Wshadow -Wpointer-arith -Wcast-qual -Wcast-align -Wwrite-strings -Wstrict-prototypes -Wmissing-prototypes -Wmissing-declarations -Wnested-externs -Wunused -Wfloat-equal -Werror=implicit-function-declaration -Wmisleading-indentation -Wduplicated-cond -fdiagnostics-color=auto -Werror=format-security -march=native -O3 -fPIC -fopenmp -funroll-loops -O2 -Wuninitialized -fexcess-precision=fast -c /home/panos/Runs/LAGR/RUN_LAGR_POINT_SOURCE_DISPERSION_ANISO/LAGR_POINT_SOURCE_DISPERSION_ANISO/FLUID/RESU/fluid/src/cs_user_mesh-modify.c
/usr/bin/mpicc -DHAVE_CONFIG_H -I/home/panos/Applications/Code_Saturne/code_saturne-lagr/arch/Linux_x86_64/include -I/home/panos/Applications/Code_Saturne/code_saturne-lagr/arch/Linux_x86_64/include/code_saturne -I/home/panos/Development/Code_Saturne_LAGR/../Code_Saturne/Libraries/CGNS/include -I/home/panos/Development/Code_Saturne_LAGR/../Code_Saturne/Libraries/MED/include -I/home/panos/Development/Code_Saturne_LAGR/../Code_Saturne/Libraries/HDF5/include -I/home/panos/Development/Code_Saturne_LAGR/../Code_Saturne/Libraries/PARMETIS/include -I/home/panos/Development/Code_Saturne_LAGR/../Code_Saturne/Libraries/SCOTCH/include -DOMPI_SKIP_MPICXX -D_POSIX_C_SOURCE=200809L -DNDEBUG -funsigned-char -W -Wall -Wshadow -Wpointer-arith -Wcast-qual -Wcast-align -Wwrite-strings -Wstrict-prototypes -Wmissing-prototypes -Wmissing-declarations -Wnested-externs -Wunused -Wfloat-equal -Werror=implicit-function-declaration -Wmisleading-indentation -Wduplicated-cond -fdiagnostics-color=auto -Werror=format-security -march=native -O3 -fPIC -fopenmp -funroll-loops -O2 -Wuninitialized -fexcess-precision=fast -c /home/panos/Runs/LAGR/RUN_LAGR_POINT_SOURCE_DISPERSION_ANISO/LAGR_POINT_SOURCE_DISPERSION_ANISO/FLUID/RESU/fluid/src/cs_meg_volume_function.c
/usr/bin/mpicc -DHAVE_CONFIG_H -I/home/panos/Applications/Code_Saturne/code_saturne-lagr/arch/Linux_x86_64/include -I/home/panos/Applications/Code_Saturne/code_saturne-lagr/arch/Linux_x86_64/include/code_saturne -I/home/panos/Development/Code_Saturne_LAGR/../Code_Saturne/Libraries/CGNS/include -I/home/panos/Development/Code_Saturne_LAGR/../Code_Saturne/Libraries/MED/include -I/home/panos/Development/Code_Saturne_LAGR/../Code_Saturne/Libraries/HDF5/include -I/home/panos/Development/Code_Saturne_LAGR/../Code_Saturne/Libraries/PARMETIS/include -I/home/panos/Development/Code_Saturne_LAGR/../Code_Saturne/Libraries/SCOTCH/include -DOMPI_SKIP_MPICXX -D_POSIX_C_SOURCE=200809L -DNDEBUG -funsigned-char -W -Wall -Wshadow -Wpointer-arith -Wcast-qual -Wcast-align -Wwrite-strings -Wstrict-prototypes -Wmissing-prototypes -Wmissing-declarations -Wnested-externs -Wunused -Wfloat-equal -Werror=implicit-function-declaration -Wmisleading-indentation -Wduplicated-cond -fdiagnostics-color=auto -Werror=format-security -march=native -O3 -fPIC -fopenmp -funroll-loops -O2 -Wuninitialized -fexcess-precision=fast -c /home/panos/Runs/LAGR/RUN_LAGR_POINT_SOURCE_DISPERSION_ANISO/LAGR_POINT_SOURCE_DISPERSION_ANISO/FLUID/RESU/fluid/src/cs_meg_initialization.c
/usr/bin/mpicc -o /home/panos/Runs/LAGR/RUN_LAGR_POINT_SOURCE_DISPERSION_ANISO/LAGR_POINT_SOURCE_DISPERSION_ANISO/FLUID/RESU/fluid/cs_solver cs_user_mesh-modify.o cs_meg_volume_function.o cs_meg_initialization.o -lcs_solver -L/home/panos/Applications/Code_Saturne/code_saturne-lagr/arch/Linux_x86_64/lib -L/home/panos/Development/Code_Saturne/Libraries/CGNS/lib -L/home/panos/Development/Code_Saturne/Libraries/MED/lib -L/home/panos/Development/Code_Saturne/Libraries/HDF5/lib -L/home/panos/Development/Code_Saturne/Libraries/PARMETIS/lib -L/home/panos/Development/Code_Saturne/Libraries/SCOTCH/lib -fPIC -O -Wl,-export-dynamic -fopenmp -lsaturne -lple -lfreesteam -lcgns -lmedC -lhdf5 -lparmetis -lmetis -lptscotch -lscotch -lz -ldl -L/usr/lib/x86_64-linux-gnu/openmpi/lib -L/usr/lib/gcc/x86_64-linux-gnu/10 -L/usr/lib/x86_64-linux-gnu -L/usr/lib -L/lib/x86_64-linux-gnu -L/lib -lmpi_usempif08 -lmpi_usempi_ignore_tkr -lmpi_mpifh -lmpi -lgfortran -lquadmath -lpthread -lm -Wl,-rpath -Wl,:/home/panos/Applications/Code_Saturne/code_saturne-lagr/arch/Linux_x86_64/lib:/home/panos/Development/Code_Saturne_LAGR/../Code_Saturne/Libraries/CGNS/lib:/home/panos/Development/Code_Saturne_LAGR/../Code_Saturne/Libraries/MED/lib:/home/panos/Development/Code_Saturne_LAGR/../Code_Saturne/Libraries/HDF5/lib:/home/panos/Development/Code_Saturne_LAGR/../Code_Saturne/Libraries/PARMETIS/lib:/home/panos/Development/Code_Saturne_LAGR/../Code_Saturne/Libraries/SCOTCH/lib
