command: 
 ./cs_solver

***************************************************************

                                  (R)
                      Code_Saturne

                      Version 6.3-alpha


  Copyright (C) 1998-2020 EDF S.A., France

  revision 7d9d2515d
  build Wed 23 Sep 2020 09:29:32 CEST
  MPI version 3.1 (Open MPI 4.0.3)


  The Code_Saturne CFD tool  is free software;
  you can redistribute it and/or modify it under the terms
  of the GNU General Public License as published by the
  Free Software Foundation; either version 2 of the License,
  or (at your option) any later version.

  The Code_Saturne CFD tool is distributed in the hope that
  it will be useful, but WITHOUT ANY WARRANTY; without even
  the implied warranty of MERCHANTABILITY or FITNESS FOR A
  PARTICULAR PURPOSE.  See the GNU General Public License
  for more details.

***************************************************************


Local case configuration:

  Date:                Wed 23 Sep 2020 13:11:13 CEST
  System:              Linux 5.4.0-48-generic (Ubuntu 20.04.1 LTS)
  Machine:             Riemann
  Processor:           model name	: Intel(R) Core(TM) i7-7700T CPU @ 2.90GHz
  Memory:              15806 MB
  User:                panos (Panos Asproulis)
  Directory:           /home/panos/Runs/LAGR/RUN_LAGR_POINT_SOURCE_DISPERSION_ANISO/LAGR_POINT_SOURCE_DISPERSION_ANISO/FLUID/RESU/fluid
  OpenMP threads:      8
  Processors/node:     8

  Compilers used for build:
    C compiler:        gcc (Ubuntu 10.2.0-5ubuntu1~20.04) 10.2.0
    C++ compiler:      g++ (Ubuntu 10.2.0-5ubuntu1~20.04) 10.2.0
    Fortran compiler:  GNU Fortran (Ubuntu 10.2.0-5ubuntu1~20.04) 10.2.0

  I/O read method:     standard input and output, serial access
  I/O write method:    standard input and output, serial access

  External libraries for partitioning:
    ParMETIS 4.0.3
    PT-SCOTCH 6.0.6

 Reading metadata from file: "mesh_input.csm"

===============================================================

                   CALCULATION PREPARATION
                   =======================


 ===========================================================




 No error detected during the data verification
                          cs_user_parameters.f90 and others).


 ===========================================================

               CALCULATION PARAMETERS SUMMARY
               ==============================

 -----------------------------------------------------------


 ** DIMENSIONS
    ----------

 --- Physics
       NVAR   =              6 (Nb variables                )
       NSCAL  =              0 (Nb scalars                  )
       NSCAUS =              0 (Nb user scalars             )
       NSCAPP =              0 (Nb specific physics scalars )


 -----------------------------------------------------------


 ** HOMOGENEOUS MIXTURE MODEL VoF           
    ----------------------------------------

       IVOFMT =              0 ( 0  : disabled              )
                               ( > 0: enabled               )


 -----------------------------------------------------------


 ** TIME STEPPING
    -------------

 --- Per-variable properties

------------------------------------
 Variable          ISTAT      CDTVAR
------------------------------------
 Velocity              1  0.1000E+01
 Pressure              0  0.1000E+01
 k                     1  0.1000E+01
 epsilon               1  0.1000E+01
----------------------------

       ISTAT  =  0 ou  1       (1 for unsteady              )
       CDTVAR >  0             (time step multiplier        )

 --- Order of base time stepping scheme
       ISCHTP =              1 (1: order 1; 2: order 2      )
                                                             

 -----------------------------------------------------------


 ** STOKES
    ------

  -- Continuous phase:

       ISTMPF =              1 (time scheme for flow
                               (0: explicit (THETFL = 0     )
                               (1: std scheme (Saturne 1.0  )
                               (2: 2nd-order (THETFL = 0.5  )
       THETFL =   -0.99900E+03 (theta for mass flow         )
       THETVI =    0.00000E+00 (theta for total viscosity
                               ((1+theta).new-theta.old
       THETCP =   -0.99900E+03 (specific heat theta-scheme
                               ((1+theta).new-theta.old
       THETSN =    0.00000E+00 (Nav-Stokes S.T. theta scheme)
                               ((1+theta).new-theta.old
       THETST =    0.00000E+00 (Turbulence S.T. theta-scheme)
                               ((1+theta).new-theta.old
       EPSUP  =    0.10000E-04 (Velocity/pressure coupling
                                stop test                   )


 -----------------------------------------------------------


 ** CALCULATION MANAGEMENT
    ----------------------

 --- Restarted calculation
       ISUITE =              0 (1: restarted calculation    )
       ILEAUX =              1 (1: read  restart/auxiliary  )
       IECAUX =              1 (1: write checkpoint/auxiliary)


 --- Calculation time
     The numbering of time steps and the measure of simulated
       physical time are absolute values, and not values
       relative to the current calculation.

       NTPABS =              0 (Initial time step)
       NTMABS =              0 (Final time step required)


 -----------------------------------------------------------


 ** INPUT-OUTPUT
    ------------

 --- Restart file
       NTSUIT =              0 (Checkpoint frequency )

 --- Probe history files
       NTHIST =              1 (Output frequency     )
       FRHIST =     -.10000E+01 (Output frequency (s) )
         --           --                --

 --- run_solver.log files
       NTLIST =              1 (Output frequency     )

         --           --                --

 --- Additional post-processing variables (ipstdv)
       ipstfo =              1 (Force exerted by the
                                     fluid on the boundary)
       ipstyp =              1 (y+ at boundary)
       ipsttp =              0 (T+ at boundary)
       ipstft =              1 (Thermal flux   at boundary)
       ipstnu =              0 (Dimensionless thermal
                                          flux at boundary)


 -----------------------------------------------------------


 ** ALE METHOD (MOVING MESH)
    -----------

       IALE   =              0 (1: activated,2: CDO         )
       NALINF =              0 (Fluid initialization
                                                  iterations)
       IFLXMW =              0 (ALE mass flux computation
                                0: thanks to vertices
                                1: thanks to mesh velocity)


 -----------------------------------------------------------


Postprocessing output writers:
------------------------------

  -1: name: results
      directory: postprocessing
      format: EnSight Gold
      options: binary
      time dependency: fixed mesh
      output: every 100 time steps and at calculation end

  -5: name: 
      directory: monitoring
      format: time_plot
      options: 
      time dependency: fixed mesh
      output: every 1 time steps

  -6: name: 
      directory: profiles
      format: plot
      options: 
      time dependency: fixed mesh
      output: at calculation end

  -7: name: histograms
      directory: histograms
      format: histogram
      options: txt
      time dependency: fixed mesh
      output: at calculation end


 Reading file:        mesh_input.csm
 Finished reading:    mesh_input.csm

 Number of cells:                                      1

 ----------------------------------------------------------
 Number of cells + halo cells:                         1


 ----------------------------------------------------------
 Number of interior faces:                             0

 ----------------------------------------------------------
 Number of boundary faces:                             6

 ----------------------------------------------------------

 Histogram of the number of interior faces per cell:

    minimum value =                  0
    maximum value =                  0

      1 : [          0 ;          0 ] =          1

 ----------------------------------------------------------

 Writing file:        mesh_output.csm
 Finished writing:    mesh_output.csm

 Renumbering mesh:

   renumbering for cells:
     pre-numbering:                       no renumbering
     cells adjacent to ghost cells last:  no
     numbering:                           no renumbering

   renumbering for interior faces:
     cell adjacency pre-ordering:         lowest id first
     faces adjacent to ghost cells last:  no
     numbering:                           multipass

   renumbering for boundary faces:
     numbering:                           no shared cell across threads

   renumbering for vertices:
     numbering:                           no renumbering

 Numbering for cells:

 type: default
  number of halo-adjacent elements:          1

 Numbering for interior faces:

 type: default
  number of halo-adjacent elements:          0

 Numbering for boundary faces:

 type: threads
  number of threads:                         8
  number of exclusive groups:                1
   number of elements in group  0:           6
  estimated thread imbalance:            7.000

 ----------------------------------------------------------

 Matrix bandwidth for volume mesh :          0
 Matrix profile/lines for volume mesh :      0

 Mesh coordinates:               minimum    and maximum
                       X : -5.0000000e+02  5.0000000e+02
                       Y : -5.0000000e+02  5.0000000e+02
                       Z : -5.0000000e+02  5.0000000e+02
 Mesh
     Number of cells:          1
     Number of interior faces: 0
     Number of boundary faces: 6
     Number of vertices:       8

 Groups:
    "7"
       cells:                     1
       boundary faces:            6
    "bottom"
       boundary faces:            1
    "inlet"
       boundary faces:            1
    "outlet"
       boundary faces:            1
    "sym"
       boundary faces:            2
    "top"
       boundary faces:            1

 --- Information on the volumes
       Minimum control volume      =  1.0000000e+09
       Maximum control volume      =  1.0000000e+09
       Total volume for the domain =  1.0000000e+09

  Criterion 1: Orthogonality:
    Number of bad cells detected: 0 -->   0 %

  Criterion 2: Offset:
    Number of bad cells detected: 0 -->   0 %

  Criterion 3: Least-Squares Gradient Quality:
    Number of bad cells detected: 0 -->   0 %

  Criterion 4: Cells Volume Ratio:
    Number of bad cells detected: 0 -->   0 %

  Criterion 5: Guilt by Association:
    Number of bad cells detected: 0 -->   0 %

 Computing geometric quantities (1.95e-05 s)

 --- Information on volume zones
  Volume zone "cells"
    id              = 0
    Number of cells = 1
    Volume          =  1.0000000e+09
  Center of gravity = ( 0.0000000e+00,  0.0000000e+00,  0.0000000e+00)
    Surface         = -1 (not computed)
  Volume zone "all_cells"
    id              = 1
    Number of cells = 1
    Volume          =  1.0000000e+09
  Center of gravity = ( 0.0000000e+00,  0.0000000e+00,  0.0000000e+00)
    Surface         = -1 (not computed)

 --- Information on boundary zones
  Boundary zone "boundary_faces"
    id              = 0
    Number of faces = 6
    Surface         =  6.0000000e+06
  Center of gravity = ( 0.0000000e+00,  0.0000000e+00,  0.0000000e+00)
    Perimeter       = -1 (not computed)
  Boundary zone "BC_1"
    id              = 1
    Number of faces = 6
    Surface         =  6.0000000e+06
  Center of gravity = ( 0.0000000e+00,  0.0000000e+00,  0.0000000e+00)
    Perimeter       = -1 (not computed)
                                                             
       ALMAX  =    0.10000E+04 (Characteristic length       )
       ALMAX is the cubic root of the domain volume.

       ALMAX is the length used to initialize the turbulence.
 ------------------------------------------------------------- 


 ** VARIABLES INITIALIZATION
    ------------------------
                                                             
 -----------------------------------------
 Property           Min. value  Max. value
 -----------------------------------------
  density           0.9980E+03  0.9980E+03
  molecular_viscos  0.1002E-02  0.1002E-02
  turbulent_viscos  0.2445E+05  0.2445E+05
 -----------------------------------------



   ** INFORMATION ON BOUNDARY FACES TYPE
      ----------------------------------

-------------------------------------------------------------------------
Boundary type          Code    Nb faces
-------------------------------------------------------------------------
Inlet                     2           0
Smooth wall               5           0
Rough wall                6           0
Symmetry                  4           6
Free outlet               3           0
Free inlet               14           0
Convective inlet         16           0
Free surface             15           0
Undefined                 1           0
-------------------------------------------------------------------------


  ** Clippings for computed fields
     -----------------------------

   field       initial min     initial max  clips to min  clips to max
-  -------  --------------  --------------  ------------  ------------
a  k      
a  epsilon


  ** Field values on cells
     ---------------------

   field                  minimum         maximum        set mean    spatial mean
-  --------------  --------------  --------------  --------------  --------------
v  Velocity[X]                  0               0               0               0
v  Velocity[Y]                  0               0               0               0
v  Velocity[Z]                  0               0               0               0
v  ǁVelocityǁ                   0               0               0               0
v  Pressure                     0               0               0               0
v  k                       0.0006          0.0006          0.0006          0.0006
v  epsilon             1.3227e-09      1.3227e-09      1.3227e-09      1.3227e-09
v  TurbVisc                 24446           24446           24446           24446
v  CourantNb                    0               0               0               0
v  FourierNb                    0               0               0               0
v  total_pressure      1.0132e+05      1.0132e+05      1.0132e+05      1.0132e+05

  ** Field values on boundary_faces
     ------------------------------

   field         minimum         maximum        set mean    spatial mean
-  -----  --------------  --------------  --------------  --------------
v  Yplus               0               0               0               0



===============================================================



                       MAIN CALCULATION                      
                       ================                      


===============================================================




===============================================================



   ** BOUNDARY MASS FLOW INFORMATION
      ------------------------------

---------------------------------------------------------------
Boundary type          Code    Nb faces           Mass flow
---------------------------------------------------------------
Inlet                     2           0         0.000000000E+00
Smooth wall               5           0         0.000000000E+00
Rough wall                6           0         0.000000000E+00
Symmetry                  4           6         0.000000000E+00
Free outlet               3           0         0.000000000E+00
Free inlet               14           0         0.000000000E+00
Convective inlet         16           0         0.000000000E+00
Free surface             15           0         0.000000000E+00
Undefined                 1           0         0.000000000E+00
---------------------------------------------------------------



 Write final restart files
   checkpoint at iteration          0, Physical time    0.00000E+00


   ** Writing the main restart file
      -----------------------------

 Start writing
  Wrote field names and types to checkpoint at iteration 0: checkpoint/main.csc
   End writing the options                              
  Wrote main variables to checkpoint: checkpoint/main.csc
 End writing

   ** Writing the auxiliary restart file
      ----------------------------------

 Start writing
   End writing the dimensions and options               
   End writing the physical properties                  
   End writing the time step                            
  Wrote boundary condition coefficients to checkpoint: checkpoint/auxiliary.csc
 End writing

   ** INFORMATION ON CONVERGENCE
      --------------------------
----------------------------------------------------------------------------
   Variable     Rhs norm      N_iter  Norm. residual   Drift   Time residual
----------------------------------------------------------------------------
c  Velocity     0.00000E+00       0   0.00000E+00   0.00000E+00 0.00000E+00 
c  Velocity[X]                                      0.00000E+00 
c  Velocity[Y]                                      0.00000E+00 
c  Velocity[Z]                                      0.00000E+00 
c  Pressure     0.00000E+00       0   0.00000E+00   0.00000E+00 0.00000E+00 
c  k            0.00000E+00       0   0.00000E+00   0.00000E+00 0.00000E+00 
c  epsilon      0.00000E+00       0   0.00000E+00   0.00000E+00 0.00000E+00 
----------------------------------------------------------------------------
  
  

  ** Clippings for computed fields
     -----------------------------

   field       initial min     initial max  clips to min  clips to max
-  -------  --------------  --------------  ------------  ------------
a  k      
a  epsilon


  ** Field values on cells
     ---------------------

   field                  minimum         maximum        set mean    spatial mean
-  --------------  --------------  --------------  --------------  --------------
v  Velocity[X]                  0               0               0               0
v  Velocity[Y]                  0               0               0               0
v  Velocity[Z]                  0               0               0               0
v  ǁVelocityǁ                   0               0               0               0
v  Pressure                     0               0               0               0
v  k                       0.0006          0.0006          0.0006          0.0006
v  epsilon             1.3227e-09      1.3227e-09      1.3227e-09      1.3227e-09
v  TurbVisc                 24446           24446           24446           24446
v  CourantNb                    0               0               0               0
v  FourierNb                    0               0               0               0
v  total_pressure      1.0132e+05      1.0132e+05      1.0132e+05      1.0132e+05

  ** Field values on boundary_faces
     ------------------------------

   field         minimum         maximum        set mean    spatial mean
-  -----  --------------  --------------  --------------  --------------
v  Yplus               0               0               0               0


  ** Computed values on cells
     ------------------------

   criterion               minimum         maximum        set mean    spatial mean
   ---------------  --------------  --------------  --------------  --------------
   Courant/Fourier               0               0               0               0



===============================================================



                 FINAL STAGE OF THE CALCULATION              
                 ==============================              


 =========================================================== 





 =========================================================== 




                      END OF CALCULATION                     
                      ==================                     


===============================================================

 Destroying structures and ending computation
