PWD /home/panos/Runs/Code_Saturne/HERCULE/HERCULE-6.0.0/DOCS
INPUT /usr/share/texlive/texmf-dist/web2c/texmf.cnf
INPUT /usr/share/texlive/texmf-dist/web2c/texmf.cnf
INPUT /usr/share/texlive/texmf-var/web2c/pdftex/pdflatex.fmt
INPUT /home/panos/Runs/Code_Saturne/HERCULE/HERCULE-6.0.0/DOCS/hercule.tex
OUTPUT /home/panos/Runs/Code_Saturne/HERCULE/HERCULE-6.0.0/DOCS/hercule.log
INPUT /usr/share/texlive/texmf-dist/tex/latex/base/article.cls
INPUT /usr/share/texlive/texmf-dist/tex/latex/base/article.cls
INPUT /usr/share/texlive/texmf-dist/tex/latex/base/size12.clo
INPUT /usr/share/texlive/texmf-dist/tex/latex/base/size12.clo
INPUT /usr/share/texlive/texmf-dist/fonts/tfm/public/cm/cmr12.tfm
INPUT /usr/share/texlive/texmf-dist/tex/latex/base/inputenc.sty
INPUT /usr/share/texlive/texmf-dist/tex/latex/base/inputenc.sty
INPUT /home/panos/Runs/Code_Saturne/HERCULE/HERCULE-6.0.0/DOCS/valsat.sty
INPUT /home/panos/Runs/Code_Saturne/HERCULE/HERCULE-6.0.0/DOCS/valsat.sty
INPUT /usr/share/texlive/texmf-dist/tex/generic/babel/babel.sty
INPUT /usr/share/texlive/texmf-dist/tex/generic/babel/babel.sty
INPUT /usr/share/texlive/texmf-dist/tex/generic/babel/switch.def
INPUT /usr/share/texlive/texmf-dist/tex/generic/babel-english/english.ldf
INPUT /usr/share/texlive/texmf-dist/tex/generic/babel-english/english.ldf
INPUT /usr/share/texlive/texmf-dist/tex/generic/babel/babel.def
INPUT /usr/share/texlive/texmf-dist/tex/generic/babel/txtbabel.def
INPUT /usr/share/texlive/texmf-dist/tex/latex/base/fontenc.sty
INPUT /usr/share/texlive/texmf-dist/tex/latex/base/fontenc.sty
INPUT /usr/share/texlive/texmf-dist/tex/latex/base/t1enc.def
INPUT /usr/share/texlive/texmf-dist/tex/latex/base/t1enc.def
INPUT /usr/share/texlive/texmf-dist/fonts/tfm/jknappen/ec/ecrm1200.tfm
INPUT /usr/share/texlive/texmf-dist/tex/latex/float/float.sty
INPUT /usr/share/texlive/texmf-dist/tex/latex/float/float.sty
INPUT /usr/share/texlive/texmf-dist/tex/latex/graphics/epsfig.sty
INPUT /usr/share/texlive/texmf-dist/tex/latex/graphics/epsfig.sty
INPUT /usr/share/texlive/texmf-dist/tex/latex/graphics/graphicx.sty
INPUT /usr/share/texlive/texmf-dist/tex/latex/graphics/graphicx.sty
INPUT /usr/share/texlive/texmf-dist/tex/latex/graphics/keyval.sty
INPUT /usr/share/texlive/texmf-dist/tex/latex/graphics/keyval.sty
INPUT /usr/share/texlive/texmf-dist/tex/latex/graphics/graphics.sty
INPUT /usr/share/texlive/texmf-dist/tex/latex/graphics/graphics.sty
INPUT /usr/share/texlive/texmf-dist/tex/latex/graphics/trig.sty
INPUT /usr/share/texlive/texmf-dist/tex/latex/graphics/trig.sty
INPUT /usr/share/texlive/texmf-dist/tex/latex/graphics-cfg/graphics.cfg
INPUT /usr/share/texlive/texmf-dist/tex/latex/graphics-cfg/graphics.cfg
INPUT /usr/share/texlive/texmf-dist/tex/latex/graphics-def/pdftex.def
INPUT /usr/share/texlive/texmf-dist/tex/latex/graphics-def/pdftex.def
INPUT /usr/share/texlive/texmf-dist/tex/latex/fancyhdr/fancyhdr.sty
INPUT /usr/share/texlive/texmf-dist/tex/latex/fancyhdr/fancyhdr.sty
INPUT /usr/share/texlive/texmf-dist/tex/latex/base/ifthen.sty
INPUT /usr/share/texlive/texmf-dist/tex/latex/base/ifthen.sty
INPUT /usr/share/texlive/texmf-dist/tex/latex/tools/bm.sty
INPUT /usr/share/texlive/texmf-dist/tex/latex/tools/bm.sty
INPUT /usr/share/texlive/texmf-dist/tex/latex/psnfss/ot1phv.fd
INPUT /usr/share/texlive/texmf-dist/tex/latex/psnfss/ot1phv.fd
INPUT /usr/share/texlive/texmf-dist/fonts/tfm/adobe/helvetic/phvb7t.tfm
INPUT /usr/share/texlive/texmf-dist/fonts/tfm/adobe/helvetic/phvb7t.tfm
INPUT /usr/share/texlive/texmf-dist/fonts/tfm/adobe/helvetic/phvb7t.tfm
INPUT /usr/share/texlive/texmf-dist/tex/latex/amsmath/amsmath.sty
INPUT /usr/share/texlive/texmf-dist/tex/latex/amsmath/amsmath.sty
INPUT /usr/share/texlive/texmf-dist/tex/latex/amsmath/amstext.sty
INPUT /usr/share/texlive/texmf-dist/tex/latex/amsmath/amstext.sty
INPUT /usr/share/texlive/texmf-dist/tex/latex/amsmath/amsgen.sty
INPUT /usr/share/texlive/texmf-dist/tex/latex/amsmath/amsgen.sty
INPUT /usr/share/texlive/texmf-dist/tex/latex/amsmath/amsbsy.sty
INPUT /usr/share/texlive/texmf-dist/tex/latex/amsmath/amsbsy.sty
INPUT /usr/share/texlive/texmf-dist/tex/latex/amsmath/amsopn.sty
INPUT /usr/share/texlive/texmf-dist/tex/latex/amsmath/amsopn.sty
INPUT /usr/share/texlive/texmf-dist/tex/latex/was/gensymb.sty
INPUT /usr/share/texlive/texmf-dist/tex/latex/was/gensymb.sty
INPUT /usr/share/texlive/texmf-dist/tex/latex/auto-pst-pdf/auto-pst-pdf.sty
INPUT /usr/share/texlive/texmf-dist/tex/latex/auto-pst-pdf/auto-pst-pdf.sty
INPUT /usr/share/texlive/texmf-dist/tex/generic/oberdiek/ifpdf.sty
INPUT /usr/share/texlive/texmf-dist/tex/generic/oberdiek/ifpdf.sty
INPUT /usr/share/texlive/texmf-dist/tex/latex/xkeyval/xkeyval.sty
INPUT /usr/share/texlive/texmf-dist/tex/latex/xkeyval/xkeyval.sty
INPUT /usr/share/texlive/texmf-dist/tex/generic/xkeyval/xkeyval.tex
INPUT /usr/share/texlive/texmf-dist/tex/generic/xkeyval/xkvutils.tex
INPUT /usr/share/texlive/texmf-dist/tex/latex/ifplatform/ifplatform.sty
INPUT /usr/share/texlive/texmf-dist/tex/latex/ifplatform/ifplatform.sty
INPUT /usr/share/texlive/texmf-dist/tex/latex/tools/shellesc.sty
INPUT /usr/share/texlive/texmf-dist/tex/latex/tools/shellesc.sty
INPUT /usr/share/texlive/texmf-dist/tex/generic/oberdiek/pdftexcmds.sty
INPUT /usr/share/texlive/texmf-dist/tex/generic/oberdiek/pdftexcmds.sty
INPUT /usr/share/texlive/texmf-dist/tex/generic/oberdiek/infwarerr.sty
INPUT /usr/share/texlive/texmf-dist/tex/generic/oberdiek/infwarerr.sty
INPUT /usr/share/texlive/texmf-dist/tex/generic/oberdiek/ifluatex.sty
INPUT /usr/share/texlive/texmf-dist/tex/generic/oberdiek/ifluatex.sty
INPUT /usr/share/texlive/texmf-dist/tex/generic/oberdiek/ltxcmds.sty
INPUT /usr/share/texlive/texmf-dist/tex/generic/oberdiek/ltxcmds.sty
INPUT /usr/share/texlive/texmf-dist/tex/generic/oberdiek/catchfile.sty
INPUT /usr/share/texlive/texmf-dist/tex/generic/oberdiek/catchfile.sty
INPUT /usr/share/texlive/texmf-dist/tex/generic/oberdiek/etexcmds.sty
INPUT /usr/share/texlive/texmf-dist/tex/generic/oberdiek/etexcmds.sty
INPUT /dev/null
INPUT /usr/share/texlive/texmf-dist/tex/latex/pst-pdf/pst-pdf.sty
INPUT /usr/share/texlive/texmf-dist/tex/latex/pst-pdf/pst-pdf.sty
INPUT /usr/share/texlive/texmf-dist/tex/generic/ifxetex/ifxetex.sty
INPUT /usr/share/texlive/texmf-dist/tex/generic/ifxetex/ifxetex.sty
INPUT /usr/share/texlive/texmf-dist/tex/generic/oberdiek/ifvtex.sty
INPUT /usr/share/texlive/texmf-dist/tex/generic/oberdiek/ifvtex.sty
INPUT /usr/share/texlive/texmf-dist/tex/generic/luatex85/luatex85.sty
INPUT /usr/share/texlive/texmf-dist/tex/generic/luatex85/luatex85.sty
INPUT /usr/share/texlive/texmf-dist/tex/latex/pstricks/pstricks.sty
INPUT /usr/share/texlive/texmf-dist/tex/latex/pstricks/pstricks.sty
INPUT /usr/share/texlive/texmf-dist/tex/generic/iftex/iftex.sty
INPUT /usr/share/texlive/texmf-dist/tex/generic/iftex/iftex.sty
INPUT /usr/share/texlive/texmf-dist/tex/latex/xcolor/xcolor.sty
INPUT /usr/share/texlive/texmf-dist/tex/latex/xcolor/xcolor.sty
INPUT /usr/share/texlive/texmf-dist/tex/latex/graphics-cfg/color.cfg
INPUT /usr/share/texlive/texmf-dist/tex/latex/graphics-cfg/color.cfg
INPUT /usr/share/texlive/texmf-dist/tex/generic/xkeyval/pst-xkey.tex
INPUT /usr/share/texlive/texmf-dist/tex/generic/xkeyval/pst-xkey.tex
INPUT /usr/share/texlive/texmf-dist/tex/generic/pstricks/pstricks.tex
INPUT /usr/share/texlive/texmf-dist/tex/generic/pstricks/pstricks.tex
INPUT /usr/share/texlive/texmf-dist/tex/generic/pstricks/pst-fp.tex
INPUT /usr/share/texlive/texmf-dist/tex/generic/pgf/utilities/pgfutil-common.tex
INPUT /usr/share/texlive/texmf-dist/tex/generic/pgf/utilities/pgfutil-common-lists.tex
INPUT /usr/share/texlive/texmf-dist/tex/generic/pgf/utilities/pgfkeys.code.tex
INPUT /usr/share/texlive/texmf-dist/tex/generic/pgf/utilities/pgfkeysfiltered.code.tex
INPUT /usr/share/texlive/texmf-dist/tex/generic/pgf/utilities/pgffor.code.tex
INPUT /usr/share/texlive/texmf-dist/tex/generic/pgf/math/pgfmath.code.tex
INPUT /usr/share/texlive/texmf-dist/tex/generic/pgf/math/pgfmathcalc.code.tex
INPUT /usr/share/texlive/texmf-dist/tex/generic/pgf/math/pgfmathutil.code.tex
INPUT /usr/share/texlive/texmf-dist/tex/generic/pgf/math/pgfmathparser.code.tex
INPUT /usr/share/texlive/texmf-dist/tex/generic/pgf/math/pgfmathfunctions.code.tex
INPUT /usr/share/texlive/texmf-dist/tex/generic/pgf/math/pgfmathfunctions.basic.code.tex
INPUT /usr/share/texlive/texmf-dist/tex/generic/pgf/math/pgfmathfunctions.trigonometric.code.tex
INPUT /usr/share/texlive/texmf-dist/tex/generic/pgf/math/pgfmathfunctions.random.code.tex
INPUT /usr/share/texlive/texmf-dist/tex/generic/pgf/math/pgfmathfunctions.comparison.code.tex
INPUT /usr/share/texlive/texmf-dist/tex/generic/pgf/math/pgfmathfunctions.base.code.tex
INPUT /usr/share/texlive/texmf-dist/tex/generic/pgf/math/pgfmathfunctions.round.code.tex
INPUT /usr/share/texlive/texmf-dist/tex/generic/pgf/math/pgfmathfunctions.misc.code.tex
INPUT /usr/share/texlive/texmf-dist/tex/generic/pgf/math/pgfmathfunctions.integerarithmetics.code.tex
INPUT /usr/share/texlive/texmf-dist/tex/generic/pgf/math/pgfmathfloat.code.tex
INPUT /usr/share/texlive/texmf-dist/tex/generic/pstricks/pstricks.con
INPUT /usr/share/texlive/texmf-dist/tex/generic/pstricks/pst-fp.tex
INPUT /usr/share/texlive/texmf-dist/tex/generic/pstricks/pst-fp.tex
INPUT /usr/share/texlive/texmf-dist/tex/latex/preview/preview.sty
INPUT /usr/share/texlive/texmf-dist/tex/latex/preview/preview.sty
INPUT /usr/share/texlive/texmf-dist/tex/generic/luatex85/luatex85.sty
INPUT /usr/share/texlive/texmf-dist/tex/latex/graphics-def/dvips.def
INPUT /usr/share/texlive/texmf-dist/tex/latex/graphics-def/dvips.def
INPUT /usr/share/texlive/texmf-dist/tex/latex/environ/environ.sty
INPUT /usr/share/texlive/texmf-dist/tex/latex/environ/environ.sty
INPUT /usr/share/texlive/texmf-dist/tex/latex/trimspaces/trimspaces.sty
INPUT /usr/share/texlive/texmf-dist/tex/latex/trimspaces/trimspaces.sty
INPUT /home/panos/Runs/Code_Saturne/HERCULE/HERCULE-6.0.0/DOCS/hercule.aux
INPUT /home/panos/Runs/Code_Saturne/HERCULE/HERCULE-6.0.0/DOCS/hercule.aux
OUTPUT /home/panos/Runs/Code_Saturne/HERCULE/HERCULE-6.0.0/DOCS/hercule.aux
INPUT /usr/share/texlive/texmf-dist/tex/context/base/mkii/supp-pdf.mkii
INPUT /usr/share/texlive/texmf-dist/tex/context/base/mkii/supp-pdf.mkii
INPUT /usr/share/texlive/texmf-dist/fonts/tfm/jknappen/ec/ecrm2488.tfm
INPUT /usr/share/texlive/texmf-dist/fonts/tfm/jknappen/ec/ecbx2488.tfm
INPUT /usr/share/texlive/texmf-dist/fonts/tfm/jknappen/ec/ecbx1200.tfm
INPUT /usr/share/texlive/texmf-dist/fonts/tfm/jknappen/ec/ecbx1728.tfm
OUTPUT /home/panos/Runs/Code_Saturne/HERCULE/HERCULE-6.0.0/DOCS/hercule.toc
INPUT /usr/share/texlive/texmf-dist/fonts/tfm/public/cm/cmr8.tfm
INPUT /usr/share/texlive/texmf-dist/fonts/tfm/public/cm/cmr6.tfm
INPUT /usr/share/texlive/texmf-dist/fonts/tfm/public/cm/cmmi12.tfm
INPUT /usr/share/texlive/texmf-dist/fonts/tfm/public/cm/cmmi8.tfm
INPUT /usr/share/texlive/texmf-dist/fonts/tfm/public/cm/cmmi6.tfm
INPUT /usr/share/texlive/texmf-dist/fonts/tfm/public/cm/cmsy10.tfm
INPUT /usr/share/texlive/texmf-dist/fonts/tfm/public/cm/cmsy8.tfm
INPUT /usr/share/texlive/texmf-dist/fonts/tfm/public/cm/cmsy6.tfm
INPUT /usr/share/texlive/texmf-dist/fonts/tfm/public/cm/cmex10.tfm
INPUT /usr/share/texlive/texmf-dist/fonts/tfm/public/amsfonts/cmextra/cmex8.tfm
INPUT /usr/share/texlive/texmf-dist/fonts/tfm/public/amsfonts/cmextra/cmex7.tfm
INPUT /usr/share/texlive/texmf-dist/fonts/tfm/public/cm/cmbx12.tfm
INPUT /usr/share/texlive/texmf-dist/fonts/tfm/public/cm/cmbx8.tfm
INPUT /usr/share/texlive/texmf-dist/fonts/tfm/public/cm/cmbx6.tfm
INPUT /usr/share/texlive/texmf-dist/fonts/tfm/public/cm/cmmib10.tfm
INPUT /usr/share/texlive/texmf-dist/fonts/tfm/public/amsfonts/cmextra/cmmib8.tfm
INPUT /usr/share/texlive/texmf-dist/fonts/tfm/public/amsfonts/cmextra/cmmib6.tfm
INPUT /usr/share/texlive/texmf-dist/fonts/tfm/public/cm/cmbsy10.tfm
INPUT /usr/share/texlive/texmf-dist/fonts/tfm/public/amsfonts/cmextra/cmbsy8.tfm
INPUT /usr/share/texlive/texmf-dist/fonts/tfm/public/amsfonts/cmextra/cmbsy6.tfm
INPUT /usr/share/texlive/texmf-dist/tex/latex/psnfss/t1phv.fd
INPUT /usr/share/texlive/texmf-dist/tex/latex/psnfss/t1phv.fd
INPUT /usr/share/texlive/texmf-dist/fonts/tfm/adobe/helvetic/phvr8t.tfm
INPUT /usr/share/texlive/texmf-dist/tex/latex/psnfss/t1ppl.fd
INPUT /usr/share/texlive/texmf-dist/tex/latex/psnfss/t1ppl.fd
INPUT /usr/share/texlive/texmf-dist/fonts/tfm/adobe/palatino/pplbi8t.tfm
INPUT /usr/share/texlive/texmf-dist/fonts/tfm/jknappen/ec/ecrm1095.tfm
OUTPUT /home/panos/Runs/Code_Saturne/HERCULE/HERCULE-6.0.0/DOCS/hercule.pdf
INPUT /usr/share/texlive/texmf-dist/fonts/map/pdftex/updmap/pdftex.map
INPUT /usr/share/texlive/texmf-dist/fonts/vf/adobe/helvetic/phvr8t.vf
INPUT /usr/share/texlive/texmf-dist/fonts/tfm/adobe/helvetic/phvr8r.tfm
INPUT /usr/share/texlive/texmf-dist/fonts/vf/adobe/palatino/pplbi8t.vf
INPUT /usr/share/texlive/texmf-dist/fonts/tfm/adobe/palatino/pplbi8r.tfm
INPUT /usr/share/texlive/texmf-dist/fonts/tfm/jknappen/ec/ecti1200.tfm
INPUT /usr/share/texlive/texmf-dist/fonts/tfm/jknappen/ec/ecbx2074.tfm
INPUT /usr/share/texlive/texmf-dist/fonts/tfm/jknappen/ec/ecrm0800.tfm
INPUT /usr/share/texlive/texmf-dist/fonts/tfm/jknappen/ec/ecrm1000.tfm
INPUT /usr/share/texlive/texmf-dist/fonts/tfm/public/amsfonts/cmextra/cmex7.tfm
INPUT /usr/share/texlive/texmf-dist/fonts/tfm/public/amsfonts/cmextra/cmex7.tfm
INPUT /usr/share/texlive/texmf-dist/fonts/tfm/public/cm/cmbx10.tfm
INPUT /usr/share/texlive/texmf-dist/fonts/tfm/public/cm/cmbx7.tfm
INPUT /usr/share/texlive/texmf-dist/fonts/tfm/public/cm/cmbx5.tfm
INPUT /usr/share/texlive/texmf-dist/fonts/tfm/public/cm/cmmib10.tfm
INPUT /usr/share/texlive/texmf-dist/fonts/tfm/public/amsfonts/cmextra/cmmib7.tfm
INPUT /usr/share/texlive/texmf-dist/fonts/tfm/public/amsfonts/cmextra/cmmib5.tfm
INPUT /usr/share/texlive/texmf-dist/fonts/tfm/public/cm/cmbsy10.tfm
INPUT /usr/share/texlive/texmf-dist/fonts/tfm/public/amsfonts/cmextra/cmbsy7.tfm
INPUT /usr/share/texlive/texmf-dist/fonts/tfm/public/amsfonts/cmextra/cmbsy5.tfm
INPUT /usr/share/texlive/texmf-dist/fonts/tfm/jknappen/ec/ecrm0700.tfm
INPUT /usr/share/texlive/texmf-dist/fonts/tfm/jknappen/ec/ecbx1000.tfm
INPUT /home/panos/Runs/Code_Saturne/HERCULE/HERCULE-6.0.0/DOCS/./FIGURES/schema.ps
INPUT /usr/share/texlive/texmf-dist/tex/latex/base/t1cmtt.fd
INPUT /usr/share/texlive/texmf-dist/tex/latex/base/t1cmtt.fd
INPUT /usr/share/texlive/texmf-dist/fonts/tfm/jknappen/ec/ectt1200.tfm
INPUT /home/panos/Runs/Code_Saturne/HERCULE/HERCULE-6.0.0/DOCS/./FIGURES/ecoulement.eps
INPUT /usr/share/texlive/texmf-dist/fonts/vf/adobe/helvetic/phvb7t.vf
INPUT /usr/share/texlive/texmf-dist/fonts/tfm/adobe/helvetic/phvb8r.tfm
INPUT /usr/share/texlive/texmf-dist/fonts/vf/adobe/helvetic/phvb7t.vf
INPUT /usr/share/texlive/texmf-dist/fonts/tfm/adobe/helvetic/phvb8r.tfm
INPUT /usr/share/texlive/texmf-dist/fonts/tfm/adobe/palatino/pplri8t.tfm
INPUT /usr/share/texlive/texmf-dist/tex/latex/base/omscmr.fd
INPUT /usr/share/texlive/texmf-dist/tex/latex/base/omscmr.fd
INPUT /usr/share/texlive/texmf-dist/fonts/vf/adobe/palatino/pplri8t.vf
INPUT /usr/share/texlive/texmf-dist/fonts/tfm/adobe/palatino/pplri8r.tfm
INPUT /home/panos/Runs/Code_Saturne/HERCULE/HERCULE-6.0.0/DOCS/./FIGURES/maillage.eps
INPUT /home/panos/Runs/Code_Saturne/HERCULE/HERCULE-6.0.0/DOCS/./FIGURES/couleur.eps
INPUT /usr/share/texlive/texmf-dist/fonts/tfm/jknappen/ec/ecrm0600.tfm
INPUT /usr/share/texlive/texmf-dist/fonts/tfm/adobe/palatino/pplri8t.tfm
INPUT /usr/share/texlive/texmf-dist/fonts/vf/adobe/palatino/pplri8t.vf
INPUT /usr/share/texlive/texmf-dist/fonts/tfm/adobe/palatino/pplri8r.tfm
INPUT /home/panos/Runs/Code_Saturne/HERCULE/HERCULE-6.0.0/DOCS/./FIGURES/pospoints.eps
INPUT /home/panos/Runs/Code_Saturne/HERCULE/HERCULE-6.0.0/DOCS/./FIGURES/Histo_mono.eps
INPUT /home/panos/Runs/Code_Saturne/HERCULE/HERCULE-6.0.0/DOCS/./FIGURES/Histo_Std.eps
INPUT /home/panos/Runs/Code_Saturne/HERCULE/HERCULE-6.0.0/DOCS/./FIGURES/Histo_Cplt.eps
INPUT /home/panos/Runs/Code_Saturne/HERCULE/HERCULE-6.0.0/DOCS/./FIGURES/nbpart.eps
INPUT /home/panos/Runs/Code_Saturne/HERCULE/HERCULE-6.0.0/DOCS/./FIGURES/AxeFluide_mono.eps
INPUT /home/panos/Runs/Code_Saturne/HERCULE/HERCULE-6.0.0/DOCS/./FIGURES/ProfVZFluide_mono.eps
INPUT /usr/share/texlive/texmf-dist/fonts/vf/adobe/helvetic/phvb7t.vf
INPUT /usr/share/texlive/texmf-dist/fonts/tfm/adobe/helvetic/phvb8r.tfm
INPUT /home/panos/Runs/Code_Saturne/HERCULE/HERCULE-6.0.0/DOCS/./FIGURES/AxeFluide_diph.eps
INPUT /home/panos/Runs/Code_Saturne/HERCULE/HERCULE-6.0.0/DOCS/./FIGURES/ProfVZFluide_diph.eps
INPUT /home/panos/Runs/Code_Saturne/HERCULE/HERCULE-6.0.0/DOCS/./FIGURES/VitZPart.eps
INPUT /home/panos/Runs/Code_Saturne/HERCULE/HERCULE-6.0.0/DOCS/./FIGURES/VitXPart.eps
INPUT /home/panos/Runs/Code_Saturne/HERCULE/HERCULE-6.0.0/DOCS/./FIGURES/VitZpPart.eps
INPUT /home/panos/Runs/Code_Saturne/HERCULE/HERCULE-6.0.0/DOCS/./FIGURES/VitXpPart.eps
INPUT /home/panos/Runs/Code_Saturne/HERCULE/HERCULE-6.0.0/DOCS/hercule.aux
INPUT /usr/share/texlive/texmf-dist/fonts/enc/dvips/base/8r.enc
INPUT /usr/share/texlive/texmf-dist/fonts/enc/dvips/cm-super/cm-super-t1.enc
INPUT /usr/share/texlive/texmf-dist/fonts/type1/public/amsfonts/cm/cmbx12.pfb
INPUT /usr/share/texlive/texmf-dist/fonts/type1/public/amsfonts/cm/cmex10.pfb
INPUT /usr/share/texlive/texmf-dist/fonts/type1/public/amsfonts/cm/cmmi10.pfb
INPUT /usr/share/texlive/texmf-dist/fonts/type1/public/amsfonts/cm/cmmi12.pfb
INPUT /usr/share/texlive/texmf-dist/fonts/type1/public/amsfonts/cm/cmmi8.pfb
INPUT /usr/share/texlive/texmf-dist/fonts/type1/public/amsfonts/cm/cmr10.pfb
INPUT /usr/share/texlive/texmf-dist/fonts/type1/public/amsfonts/cm/cmr12.pfb
INPUT /usr/share/texlive/texmf-dist/fonts/type1/public/amsfonts/cm/cmr8.pfb
INPUT /usr/share/texlive/texmf-dist/fonts/type1/public/amsfonts/cm/cmsy10.pfb
INPUT /usr/share/texlive/texmf-dist/fonts/type1/public/amsfonts/cm/cmsy8.pfb
INPUT /usr/share/texlive/texmf-dist/fonts/type1/public/cm-super/sfbx1000.pfb
INPUT /usr/share/texlive/texmf-dist/fonts/type1/public/cm-super/sfbx1200.pfb
INPUT /usr/share/texlive/texmf-dist/fonts/type1/public/cm-super/sfbx2074.pfb
INPUT /usr/share/texlive/texmf-dist/fonts/type1/public/cm-super/sfbx2488.pfb
INPUT /usr/share/texlive/texmf-dist/fonts/type1/public/cm-super/sfrm0700.pfb
INPUT /usr/share/texlive/texmf-dist/fonts/type1/public/cm-super/sfrm0800.pfb
INPUT /usr/share/texlive/texmf-dist/fonts/type1/public/cm-super/sfrm1000.pfb
INPUT /usr/share/texlive/texmf-dist/fonts/type1/public/cm-super/sfrm1095.pfb
INPUT /usr/share/texlive/texmf-dist/fonts/type1/public/cm-super/sfrm1200.pfb
INPUT /usr/share/texlive/texmf-dist/fonts/type1/public/cm-super/sfti1200.pfb
INPUT /usr/share/texlive/texmf-dist/fonts/type1/public/cm-super/sftt1200.pfb
INPUT /usr/share/texlive/texmf-dist/fonts/type1/urw/helvetic/uhvb8a.pfb
INPUT /usr/share/texlive/texmf-dist/fonts/type1/urw/helvetic/uhvr8a.pfb
INPUT /usr/share/texlive/texmf-dist/fonts/type1/urw/palatino/uplbi8a.pfb
INPUT /usr/share/texlive/texmf-dist/fonts/type1/urw/palatino/uplri8a.pfb
