[1m
    Installation des bibliotheques BASE CFBL COGZ CPLV ELEC LAGR RAYT MATI sous Linux_Ch
    Version de Code_Saturne /home/saturne/Noyau/ncs-1.3.d
       ==================================================================  
[27m[m(B[!p[?3;4l[4l>[!p[?3;4l[4l>[7m
 *** Repertoire de base CS_HOME = /home/saturne/Noyau/ncs-1.3.d
[27m[m(B[!p[?3;4l[4l>[!p[?3;4l[4l>[7m
 *** Protection prealable
[27m[m(B[!p[?3;4l[4l>[!p[?3;4l[4l>[7m
 *** Construction de BASE sous Linux_Ch
[27m[m(B[!p[?3;4l[4l>[!p[?3;4l[4l>   Generation du repertoire BASE
   Lien sur le Makefile
   Lancement de make avec MOD=BASE OPT=
make[1]: Entering directory `/home/saturne/Noyau/ncs-1.3.d/build/Linux_Ch/BASE'

***  Compilation/lien Code_Saturne  version 1.3.d
***  Système Linux_Ch

make[1]: Leaving directory `/home/saturne/Noyau/ncs-1.3.d/build/Linux_Ch/BASE'
make[1]: Entering directory `/home/saturne/Noyau/ncs-1.3.d/build/Linux_Ch/BASE'
***  "make" dans un répertoire de génération de la librairie
make[2]: Entering directory `/home/saturne/Noyau/ncs-1.3.d/build/Linux_Ch/BASE'
make[2]: Leaving directory `/home/saturne/Noyau/ncs-1.3.d/build/Linux_Ch/BASE'
make[1]: Leaving directory `/home/saturne/Noyau/ncs-1.3.d/build/Linux_Ch/BASE'
make[1]: Entering directory `/home/saturne/Noyau/ncs-1.3.d/build/Linux_Ch/BASE'
make[2]: Entering directory `/home/saturne/Noyau/ncs-1.3.d/build/Linux_Ch/BASE'
make[2]: Leaving directory `/home/saturne/Noyau/ncs-1.3.d/build/Linux_Ch/BASE'
make[2]: Entering directory `/home/saturne/Noyau/ncs-1.3.d/build/Linux_Ch/BASE'
make[2]: Leaving directory `/home/saturne/Noyau/ncs-1.3.d/build/Linux_Ch/BASE'
***  Compilation
make[2]: Entering directory `/home/saturne/Noyau/ncs-1.3.d/build/Linux_Ch/BASE'
make[2]: Leaving directory `/home/saturne/Noyau/ncs-1.3.d/build/Linux_Ch/BASE'
make[2]: Entering directory `/home/saturne/Noyau/ncs-1.3.d/build/Linux_Ch/BASE'
gradco.F
/usr/local/mpichgm-1.2.6.14b-64b/bin/mpif77 -D_CS_HAVE_XML     -fno-silent -I. -O2 -c gradco.F
  gradco:
gradrc.F
/usr/local/mpichgm-1.2.6.14b-64b/bin/mpif77 -D_CS_HAVE_XML     -fno-silent -I. -O2 -c gradrc.F
  gradrc:
jacobi.F
/usr/local/mpichgm-1.2.6.14b-64b/bin/mpif77 -D_CS_HAVE_XML     -fno-silent -I. -O2 -c jacobi.F
  jacobi:
prcpol.F
/usr/local/mpichgm-1.2.6.14b-64b/bin/mpif77 -D_CS_HAVE_XML     -fno-silent -I. -O2 -c prcpol.F
  prcpol:
promav.F
/usr/local/mpichgm-1.2.6.14b-64b/bin/mpif77 -D_CS_HAVE_XML     -fno-silent -I. -O2 -c promav.F
  promav:
make[2]: Leaving directory `/home/saturne/Noyau/ncs-1.3.d/build/Linux_Ch/BASE'
make[2]: Entering directory `/home/saturne/Noyau/ncs-1.3.d/build/Linux_Ch/BASE'
make[2]: Leaving directory `/home/saturne/Noyau/ncs-1.3.d/build/Linux_Ch/BASE'
make[2]: Entering directory `/home/saturne/Noyau/ncs-1.3.d/build/Linux_Ch/BASE'
prodsc.F
/usr/local/mpichgm-1.2.6.14b-64b/bin/mpif77 -D_CS_HAVE_XML     -fno-silent -I. -O6 -c prodsc.F
  prodsc:
prods2.F
/usr/local/mpichgm-1.2.6.14b-64b/bin/mpif77 -D_CS_HAVE_XML     -fno-silent -I. -O6 -c prods2.F
  prods2:
prods3.F
/usr/local/mpichgm-1.2.6.14b-64b/bin/mpif77 -D_CS_HAVE_XML     -fno-silent -I. -O6 -c prods3.F
  prods3:
make[2]: Leaving directory `/home/saturne/Noyau/ncs-1.3.d/build/Linux_Ch/BASE'
make[2]: Entering directory `/home/saturne/Noyau/ncs-1.3.d/build/Linux_Ch/BASE'
make[2]: Leaving directory `/home/saturne/Noyau/ncs-1.3.d/build/Linux_Ch/BASE'
make[2]: Entering directory `/home/saturne/Noyau/ncs-1.3.d/build/Linux_Ch/BASE'
gradmc.F
/usr/local/mpichgm-1.2.6.14b-64b/bin/mpif77 -D_CS_HAVE_XML     -fno-silent -I. -O0 -c gradmc.F
  gradmc:
make[2]: Leaving directory `/home/saturne/Noyau/ncs-1.3.d/build/Linux_Ch/BASE'
make[2]: Entering directory `/home/saturne/Noyau/ncs-1.3.d/build/Linux_Ch/BASE'
cs_ale.c
/usr/local/mpichgm-1.2.6.14b-64b/bin/mpicc   -I/home/saturne/opt/bft-1.0.2/arch/Linux/include -I/home/saturne/opt/fvm-0.6.1/arch/Linux/include   -I/home/saturne/opt/libxml2-2.6.19/include/libxml2 -D_POSIX_SOURCE -D_CS_HAVE_MPI  -D_CS_HAVE_SOCKET  -D_CS_HAVE_XML     -DNDEBUG  -ansi -funsigned-char -pedantic -W -Wall -Wshadow -Wpointer-arith -Wcast-qual -Wcast-align -Wwrite-strings -Wstrict-prototypes -Wmissing-prototypes -Wmissing-declarations -Wnested-externs -Wno-uninitialized  -O -Wno-unused -c cs_ale.c
In file included from /usr/local/mpichgm-1.2.6.14b-64b/include/mpidefs.h:49,
                 from /usr/local/mpichgm-1.2.6.14b-64b/include/mpi.h:230,
                 from cs_base.h:17,
                 from cs_ale.c:31:
/usr/local/mpichgm-1.2.6.14b-64b/include/mpio.h:43: warning: ISO C90 does not support `long long'
cs_base.c
/usr/local/mpichgm-1.2.6.14b-64b/bin/mpicc   -I/home/saturne/opt/bft-1.0.2/arch/Linux/include -I/home/saturne/opt/fvm-0.6.1/arch/Linux/include   -I/home/saturne/opt/libxml2-2.6.19/include/libxml2 -D_POSIX_SOURCE -D_CS_HAVE_MPI  -D_CS_HAVE_SOCKET  -D_CS_HAVE_XML     -DNDEBUG  -ansi -funsigned-char -pedantic -W -Wall -Wshadow -Wpointer-arith -Wcast-qual -Wcast-align -Wwrite-strings -Wstrict-prototypes -Wmissing-prototypes -Wmissing-declarations -Wnested-externs -Wno-uninitialized  -O -Wno-unused -c cs_base.c
In file included from /usr/local/mpichgm-1.2.6.14b-64b/include/mpidefs.h:49,
                 from /usr/local/mpichgm-1.2.6.14b-64b/include/mpi.h:230,
                 from /home/saturne/opt/fvm-0.6.1/arch/Linux/include/fvm_parall.h:34,
                 from cs_base.c:34:
/usr/local/mpichgm-1.2.6.14b-64b/include/mpio.h:43: warning: ISO C90 does not support `long long'
cs_comm.c
/usr/local/mpichgm-1.2.6.14b-64b/bin/mpicc   -I/home/saturne/opt/bft-1.0.2/arch/Linux/include -I/home/saturne/opt/fvm-0.6.1/arch/Linux/include   -I/home/saturne/opt/libxml2-2.6.19/include/libxml2 -D_POSIX_SOURCE -D_CS_HAVE_MPI  -D_CS_HAVE_SOCKET  -D_CS_HAVE_XML     -DNDEBUG  -ansi -funsigned-char -pedantic -W -Wall -Wshadow -Wpointer-arith -Wcast-qual -Wcast-align -Wwrite-strings -Wstrict-prototypes -Wmissing-prototypes -Wmissing-declarations -Wnested-externs -Wno-uninitialized  -O -Wno-unused -c cs_comm.c
In file included from /usr/local/mpichgm-1.2.6.14b-64b/include/mpidefs.h:49,
                 from /usr/local/mpichgm-1.2.6.14b-64b/include/mpi.h:230,
                 from cs_comm.c:16:
/usr/local/mpichgm-1.2.6.14b-64b/include/mpio.h:43: warning: ISO C90 does not support `long long'
In file included from cs_comm.c:35:
/home/saturne/opt/bft-1.0.2/arch/Linux/include/bft_file.h:92: warning: ISO C90 does not support `long long'
cs_comm.c: In function `cs_comm_init_socket':
cs_comm.c:1196: warning: implicit declaration of function `gethostname'
cs_comm.c:1196: warning: nested extern declaration of `gethostname'
cs_couplage.c
/usr/local/mpichgm-1.2.6.14b-64b/bin/mpicc   -I/home/saturne/opt/bft-1.0.2/arch/Linux/include -I/home/saturne/opt/fvm-0.6.1/arch/Linux/include   -I/home/saturne/opt/libxml2-2.6.19/include/libxml2 -D_POSIX_SOURCE -D_CS_HAVE_MPI  -D_CS_HAVE_SOCKET  -D_CS_HAVE_XML     -DNDEBUG  -ansi -funsigned-char -pedantic -W -Wall -Wshadow -Wpointer-arith -Wcast-qual -Wcast-align -Wwrite-strings -Wstrict-prototypes -Wmissing-prototypes -Wmissing-declarations -Wnested-externs -Wno-uninitialized  -O -Wno-unused -c cs_couplage.c
In file included from /usr/local/mpichgm-1.2.6.14b-64b/include/mpidefs.h:49,
                 from /usr/local/mpichgm-1.2.6.14b-64b/include/mpi.h:230,
                 from /home/saturne/opt/fvm-0.6.1/arch/Linux/include/fvm_locator.h:34,
                 from cs_couplage.c:23:
/usr/local/mpichgm-1.2.6.14b-64b/include/mpio.h:43: warning: ISO C90 does not support `long long'
cs_gui.c
/usr/local/mpichgm-1.2.6.14b-64b/bin/mpicc   -I/home/saturne/opt/bft-1.0.2/arch/Linux/include -I/home/saturne/opt/fvm-0.6.1/arch/Linux/include   -I/home/saturne/opt/libxml2-2.6.19/include/libxml2 -D_POSIX_SOURCE -D_CS_HAVE_MPI  -D_CS_HAVE_SOCKET  -D_CS_HAVE_XML     -DNDEBUG  -ansi -funsigned-char -pedantic -W -Wall -Wshadow -Wpointer-arith -Wcast-qual -Wcast-align -Wwrite-strings -Wstrict-prototypes -Wmissing-prototypes -Wmissing-declarations -Wnested-externs -Wno-uninitialized  -O -Wno-unused -c cs_gui.c
In file included from /usr/local/mpichgm-1.2.6.14b-64b/include/mpidefs.h:49,
                 from /usr/local/mpichgm-1.2.6.14b-64b/include/mpi.h:230,
                 from cs_base.h:17,
                 from cs_gui.c:51:
/usr/local/mpichgm-1.2.6.14b-64b/include/mpio.h:43: warning: ISO C90 does not support `long long'
cs_gui_matisse.c
/usr/local/mpichgm-1.2.6.14b-64b/bin/mpicc   -I/home/saturne/opt/bft-1.0.2/arch/Linux/include -I/home/saturne/opt/fvm-0.6.1/arch/Linux/include   -I/home/saturne/opt/libxml2-2.6.19/include/libxml2 -D_POSIX_SOURCE -D_CS_HAVE_MPI  -D_CS_HAVE_SOCKET  -D_CS_HAVE_XML     -DNDEBUG  -ansi -funsigned-char -pedantic -W -Wall -Wshadow -Wpointer-arith -Wcast-qual -Wcast-align -Wwrite-strings -Wstrict-prototypes -Wmissing-prototypes -Wmissing-declarations -Wnested-externs -Wno-uninitialized  -O -Wno-unused -c cs_gui_matisse.c
In file included from /usr/local/mpichgm-1.2.6.14b-64b/include/mpidefs.h:49,
                 from /usr/local/mpichgm-1.2.6.14b-64b/include/mpi.h:230,
                 from cs_base.h:17,
                 from cs_gui_matisse.c:40:
/usr/local/mpichgm-1.2.6.14b-64b/include/mpio.h:43: warning: ISO C90 does not support `long long'
cs_gui_radiative_transfer.c
/usr/local/mpichgm-1.2.6.14b-64b/bin/mpicc   -I/home/saturne/opt/bft-1.0.2/arch/Linux/include -I/home/saturne/opt/fvm-0.6.1/arch/Linux/include   -I/home/saturne/opt/libxml2-2.6.19/include/libxml2 -D_POSIX_SOURCE -D_CS_HAVE_MPI  -D_CS_HAVE_SOCKET  -D_CS_HAVE_XML     -DNDEBUG  -ansi -funsigned-char -pedantic -W -Wall -Wshadow -Wpointer-arith -Wcast-qual -Wcast-align -Wwrite-strings -Wstrict-prototypes -Wmissing-prototypes -Wmissing-declarations -Wnested-externs -Wno-uninitialized  -O -Wno-unused -c cs_gui_radiative_transfer.c
In file included from /usr/local/mpichgm-1.2.6.14b-64b/include/mpidefs.h:49,
                 from /usr/local/mpichgm-1.2.6.14b-64b/include/mpi.h:230,
                 from cs_base.h:17,
                 from cs_gui_radiative_transfer.c:40:
/usr/local/mpichgm-1.2.6.14b-64b/include/mpio.h:43: warning: ISO C90 does not support `long long'
cs_gui_util.c
/usr/local/mpichgm-1.2.6.14b-64b/bin/mpicc   -I/home/saturne/opt/bft-1.0.2/arch/Linux/include -I/home/saturne/opt/fvm-0.6.1/arch/Linux/include   -I/home/saturne/opt/libxml2-2.6.19/include/libxml2 -D_POSIX_SOURCE -D_CS_HAVE_MPI  -D_CS_HAVE_SOCKET  -D_CS_HAVE_XML     -DNDEBUG  -ansi -funsigned-char -pedantic -W -Wall -Wshadow -Wpointer-arith -Wcast-qual -Wcast-align -Wwrite-strings -Wstrict-prototypes -Wmissing-prototypes -Wmissing-declarations -Wnested-externs -Wno-uninitialized  -O -Wno-unused -c cs_gui_util.c
In file included from /usr/local/mpichgm-1.2.6.14b-64b/include/mpidefs.h:49,
                 from /usr/local/mpichgm-1.2.6.14b-64b/include/mpi.h:230,
                 from cs_base.h:17,
                 from cs_gui_util.c:52:
/usr/local/mpichgm-1.2.6.14b-64b/include/mpio.h:43: warning: ISO C90 does not support `long long'
cs_maillage.c
/usr/local/mpichgm-1.2.6.14b-64b/bin/mpicc   -I/home/saturne/opt/bft-1.0.2/arch/Linux/include -I/home/saturne/opt/fvm-0.6.1/arch/Linux/include   -I/home/saturne/opt/libxml2-2.6.19/include/libxml2 -D_POSIX_SOURCE -D_CS_HAVE_MPI  -D_CS_HAVE_SOCKET  -D_CS_HAVE_XML     -DNDEBUG  -ansi -funsigned-char -pedantic -W -Wall -Wshadow -Wpointer-arith -Wcast-qual -Wcast-align -Wwrite-strings -Wstrict-prototypes -Wmissing-prototypes -Wmissing-declarations -Wnested-externs -Wno-uninitialized  -O -Wno-unused -c cs_maillage.c
In file included from /usr/local/mpichgm-1.2.6.14b-64b/include/mpidefs.h:49,
                 from /usr/local/mpichgm-1.2.6.14b-64b/include/mpi.h:230,
                 from /home/saturne/opt/fvm-0.6.1/arch/Linux/include/fvm_parall.h:34,
                 from cs_maillage.c:24:
/usr/local/mpichgm-1.2.6.14b-64b/include/mpio.h:43: warning: ISO C90 does not support `long long'
cs_maillage_connect.c
/usr/local/mpichgm-1.2.6.14b-64b/bin/mpicc   -I/home/saturne/opt/bft-1.0.2/arch/Linux/include -I/home/saturne/opt/fvm-0.6.1/arch/Linux/include   -I/home/saturne/opt/libxml2-2.6.19/include/libxml2 -D_POSIX_SOURCE -D_CS_HAVE_MPI  -D_CS_HAVE_SOCKET  -D_CS_HAVE_XML     -DNDEBUG  -ansi -funsigned-char -pedantic -W -Wall -Wshadow -Wpointer-arith -Wcast-qual -Wcast-align -Wwrite-strings -Wstrict-prototypes -Wmissing-prototypes -Wmissing-declarations -Wnested-externs -Wno-uninitialized  -O -Wno-unused -c cs_maillage_connect.c
In file included from /usr/local/mpichgm-1.2.6.14b-64b/include/mpidefs.h:49,
                 from /usr/local/mpichgm-1.2.6.14b-64b/include/mpi.h:230,
                 from cs_base.h:17,
                 from cs_maillage_connect.c:27:
/usr/local/mpichgm-1.2.6.14b-64b/include/mpio.h:43: warning: ISO C90 does not support `long long'
cs_maillage_grd.c
/usr/local/mpichgm-1.2.6.14b-64b/bin/mpicc   -I/home/saturne/opt/bft-1.0.2/arch/Linux/include -I/home/saturne/opt/fvm-0.6.1/arch/Linux/include   -I/home/saturne/opt/libxml2-2.6.19/include/libxml2 -D_POSIX_SOURCE -D_CS_HAVE_MPI  -D_CS_HAVE_SOCKET  -D_CS_HAVE_XML     -DNDEBUG  -ansi -funsigned-char -pedantic -W -Wall -Wshadow -Wpointer-arith -Wcast-qual -Wcast-align -Wwrite-strings -Wstrict-prototypes -Wmissing-prototypes -Wmissing-declarations -Wnested-externs -Wno-uninitialized  -O -Wno-unused -c cs_maillage_grd.c
In file included from /usr/local/mpichgm-1.2.6.14b-64b/include/mpidefs.h:49,
                 from /usr/local/mpichgm-1.2.6.14b-64b/include/mpi.h:230,
                 from cs_base.h:17,
                 from cs_maillage_grd.c:28:
/usr/local/mpichgm-1.2.6.14b-64b/include/mpio.h:43: warning: ISO C90 does not support `long long'
cs_maillage_select.c
/usr/local/mpichgm-1.2.6.14b-64b/bin/mpicc   -I/home/saturne/opt/bft-1.0.2/arch/Linux/include -I/home/saturne/opt/fvm-0.6.1/arch/Linux/include   -I/home/saturne/opt/libxml2-2.6.19/include/libxml2 -D_POSIX_SOURCE -D_CS_HAVE_MPI  -D_CS_HAVE_SOCKET  -D_CS_HAVE_XML     -DNDEBUG  -ansi -funsigned-char -pedantic -W -Wall -Wshadow -Wpointer-arith -Wcast-qual -Wcast-align -Wwrite-strings -Wstrict-prototypes -Wmissing-prototypes -Wmissing-declarations -Wnested-externs -Wno-uninitialized  -O -Wno-unused -c cs_maillage_select.c
In file included from /usr/local/mpichgm-1.2.6.14b-64b/include/mpidefs.h:49,
                 from /usr/local/mpichgm-1.2.6.14b-64b/include/mpi.h:230,
                 from cs_maillage_select.c:13:
/usr/local/mpichgm-1.2.6.14b-64b/include/mpio.h:43: warning: ISO C90 does not support `long long'
cs_maillage_solcom.c
/usr/local/mpichgm-1.2.6.14b-64b/bin/mpicc   -I/home/saturne/opt/bft-1.0.2/arch/Linux/include -I/home/saturne/opt/fvm-0.6.1/arch/Linux/include   -I/home/saturne/opt/libxml2-2.6.19/include/libxml2 -D_POSIX_SOURCE -D_CS_HAVE_MPI  -D_CS_HAVE_SOCKET  -D_CS_HAVE_XML     -DNDEBUG  -ansi -funsigned-char -pedantic -W -Wall -Wshadow -Wpointer-arith -Wcast-qual -Wcast-align -Wwrite-strings -Wstrict-prototypes -Wmissing-prototypes -Wmissing-declarations -Wnested-externs -Wno-uninitialized  -O -Wno-unused -c cs_maillage_solcom.c
In file included from /usr/local/mpichgm-1.2.6.14b-64b/include/mpidefs.h:49,
                 from /usr/local/mpichgm-1.2.6.14b-64b/include/mpi.h:230,
                 from cs_base.h:17,
                 from cs_maillage_solcom.c:27:
/usr/local/mpichgm-1.2.6.14b-64b/include/mpio.h:43: warning: ISO C90 does not support `long long'
cs_main.c
/usr/local/mpichgm-1.2.6.14b-64b/bin/mpicc   -I/home/saturne/opt/bft-1.0.2/arch/Linux/include -I/home/saturne/opt/fvm-0.6.1/arch/Linux/include   -I/home/saturne/opt/libxml2-2.6.19/include/libxml2 -D_POSIX_SOURCE -D_CS_HAVE_MPI  -D_CS_HAVE_SOCKET  -D_CS_HAVE_XML     -DNDEBUG  -ansi -funsigned-char -pedantic -W -Wall -Wshadow -Wpointer-arith -Wcast-qual -Wcast-align -Wwrite-strings -Wstrict-prototypes -Wmissing-prototypes -Wmissing-declarations -Wnested-externs -Wno-uninitialized  -O -Wno-unused -c cs_main.c
In file included from /usr/local/mpichgm-1.2.6.14b-64b/include/mpidefs.h:49,
                 from /usr/local/mpichgm-1.2.6.14b-64b/include/mpi.h:230,
                 from cs_base.h:17,
                 from cs_main.c:25:
/usr/local/mpichgm-1.2.6.14b-64b/include/mpio.h:43: warning: ISO C90 does not support `long long'
cs_mesh_quality.c
/usr/local/mpichgm-1.2.6.14b-64b/bin/mpicc   -I/home/saturne/opt/bft-1.0.2/arch/Linux/include -I/home/saturne/opt/fvm-0.6.1/arch/Linux/include   -I/home/saturne/opt/libxml2-2.6.19/include/libxml2 -D_POSIX_SOURCE -D_CS_HAVE_MPI  -D_CS_HAVE_SOCKET  -D_CS_HAVE_XML     -DNDEBUG  -ansi -funsigned-char -pedantic -W -Wall -Wshadow -Wpointer-arith -Wcast-qual -Wcast-align -Wwrite-strings -Wstrict-prototypes -Wmissing-prototypes -Wmissing-declarations -Wnested-externs -Wno-uninitialized  -O -Wno-unused -c cs_mesh_quality.c
In file included from /usr/local/mpichgm-1.2.6.14b-64b/include/mpidefs.h:49,
                 from /usr/local/mpichgm-1.2.6.14b-64b/include/mpi.h:230,
                 from cs_base.h:17,
                 from cs_maillage.h:24,
                 from cs_mesh_quality.c:29:
/usr/local/mpichgm-1.2.6.14b-64b/include/mpio.h:43: warning: ISO C90 does not support `long long'
cs_messages_ecs.c
/usr/local/mpichgm-1.2.6.14b-64b/bin/mpicc   -I/home/saturne/opt/bft-1.0.2/arch/Linux/include -I/home/saturne/opt/fvm-0.6.1/arch/Linux/include   -I/home/saturne/opt/libxml2-2.6.19/include/libxml2 -D_POSIX_SOURCE -D_CS_HAVE_MPI  -D_CS_HAVE_SOCKET  -D_CS_HAVE_XML     -DNDEBUG  -ansi -funsigned-char -pedantic -W -Wall -Wshadow -Wpointer-arith -Wcast-qual -Wcast-align -Wwrite-strings -Wstrict-prototypes -Wmissing-prototypes -Wmissing-declarations -Wnested-externs -Wno-uninitialized  -O -Wno-unused -c cs_messages_ecs.c
In file included from /usr/local/mpichgm-1.2.6.14b-64b/include/mpidefs.h:49,
                 from /usr/local/mpichgm-1.2.6.14b-64b/include/mpi.h:230,
                 from cs_base.h:17,
                 from cs_messages_ecs.c:22:
/usr/local/mpichgm-1.2.6.14b-64b/include/mpio.h:43: warning: ISO C90 does not support `long long'
cs_msg.c
/usr/local/mpichgm-1.2.6.14b-64b/bin/mpicc   -I/home/saturne/opt/bft-1.0.2/arch/Linux/include -I/home/saturne/opt/fvm-0.6.1/arch/Linux/include   -I/home/saturne/opt/libxml2-2.6.19/include/libxml2 -D_POSIX_SOURCE -D_CS_HAVE_MPI  -D_CS_HAVE_SOCKET  -D_CS_HAVE_XML     -DNDEBUG  -ansi -funsigned-char -pedantic -W -Wall -Wshadow -Wpointer-arith -Wcast-qual -Wcast-align -Wwrite-strings -Wstrict-prototypes -Wmissing-prototypes -Wmissing-declarations -Wnested-externs -Wno-uninitialized  -O -Wno-unused -c cs_msg.c
In file included from /usr/local/mpichgm-1.2.6.14b-64b/include/mpidefs.h:49,
                 from /usr/local/mpichgm-1.2.6.14b-64b/include/mpi.h:230,
                 from cs_base.h:17,
                 from cs_msg.c:25:
/usr/local/mpichgm-1.2.6.14b-64b/include/mpio.h:43: warning: ISO C90 does not support `long long'
cs_opts.c
/usr/local/mpichgm-1.2.6.14b-64b/bin/mpicc   -I/home/saturne/opt/bft-1.0.2/arch/Linux/include -I/home/saturne/opt/fvm-0.6.1/arch/Linux/include   -I/home/saturne/opt/libxml2-2.6.19/include/libxml2 -D_POSIX_SOURCE -D_CS_HAVE_MPI  -D_CS_HAVE_SOCKET  -D_CS_HAVE_XML     -DNDEBUG  -ansi -funsigned-char -pedantic -W -Wall -Wshadow -Wpointer-arith -Wcast-qual -Wcast-align -Wwrite-strings -Wstrict-prototypes -Wmissing-prototypes -Wmissing-declarations -Wnested-externs -Wno-uninitialized  -O -Wno-unused -c cs_opts.c
In file included from /usr/local/mpichgm-1.2.6.14b-64b/include/mpidefs.h:49,
                 from /usr/local/mpichgm-1.2.6.14b-64b/include/mpi.h:230,
                 from cs_opts.c:18:
/usr/local/mpichgm-1.2.6.14b-64b/include/mpio.h:43: warning: ISO C90 does not support `long long'
cs_parallel.c
/usr/local/mpichgm-1.2.6.14b-64b/bin/mpicc   -I/home/saturne/opt/bft-1.0.2/arch/Linux/include -I/home/saturne/opt/fvm-0.6.1/arch/Linux/include   -I/home/saturne/opt/libxml2-2.6.19/include/libxml2 -D_POSIX_SOURCE -D_CS_HAVE_MPI  -D_CS_HAVE_SOCKET  -D_CS_HAVE_XML     -DNDEBUG  -ansi -funsigned-char -pedantic -W -Wall -Wshadow -Wpointer-arith -Wcast-qual -Wcast-align -Wwrite-strings -Wstrict-prototypes -Wmissing-prototypes -Wmissing-declarations -Wnested-externs -Wno-uninitialized  -O -Wno-unused -c cs_parallel.c
In file included from /usr/local/mpichgm-1.2.6.14b-64b/include/mpidefs.h:49,
                 from /usr/local/mpichgm-1.2.6.14b-64b/include/mpi.h:230,
                 from cs_base.h:17,
                 from cs_parallel.c:21:
/usr/local/mpichgm-1.2.6.14b-64b/include/mpio.h:43: warning: ISO C90 does not support `long long'
cs_perio.c
/usr/local/mpichgm-1.2.6.14b-64b/bin/mpicc   -I/home/saturne/opt/bft-1.0.2/arch/Linux/include -I/home/saturne/opt/fvm-0.6.1/arch/Linux/include   -I/home/saturne/opt/libxml2-2.6.19/include/libxml2 -D_POSIX_SOURCE -D_CS_HAVE_MPI  -D_CS_HAVE_SOCKET  -D_CS_HAVE_XML     -DNDEBUG  -ansi -funsigned-char -pedantic -W -Wall -Wshadow -Wpointer-arith -Wcast-qual -Wcast-align -Wwrite-strings -Wstrict-prototypes -Wmissing-prototypes -Wmissing-declarations -Wnested-externs -Wno-uninitialized  -O -Wno-unused -c cs_perio.c
In file included from /usr/local/mpichgm-1.2.6.14b-64b/include/mpidefs.h:49,
                 from /usr/local/mpichgm-1.2.6.14b-64b/include/mpi.h:230,
                 from cs_base.h:17,
                 from cs_perio.c:19:
/usr/local/mpichgm-1.2.6.14b-64b/include/mpio.h:43: warning: ISO C90 does not support `long long'
cs_post.c
/usr/local/mpichgm-1.2.6.14b-64b/bin/mpicc   -I/home/saturne/opt/bft-1.0.2/arch/Linux/include -I/home/saturne/opt/fvm-0.6.1/arch/Linux/include   -I/home/saturne/opt/libxml2-2.6.19/include/libxml2 -D_POSIX_SOURCE -D_CS_HAVE_MPI  -D_CS_HAVE_SOCKET  -D_CS_HAVE_XML     -DNDEBUG  -ansi -funsigned-char -pedantic -W -Wall -Wshadow -Wpointer-arith -Wcast-qual -Wcast-align -Wwrite-strings -Wstrict-prototypes -Wmissing-prototypes -Wmissing-declarations -Wnested-externs -Wno-uninitialized  -O -Wno-unused -c cs_post.c
In file included from /usr/local/mpichgm-1.2.6.14b-64b/include/mpidefs.h:49,
                 from /usr/local/mpichgm-1.2.6.14b-64b/include/mpi.h:230,
                 from cs_base.h:17,
                 from cs_post.c:28:
/usr/local/mpichgm-1.2.6.14b-64b/include/mpio.h:43: warning: ISO C90 does not support `long long'
cs_suite.c
/usr/local/mpichgm-1.2.6.14b-64b/bin/mpicc   -I/home/saturne/opt/bft-1.0.2/arch/Linux/include -I/home/saturne/opt/fvm-0.6.1/arch/Linux/include   -I/home/saturne/opt/libxml2-2.6.19/include/libxml2 -D_POSIX_SOURCE -D_CS_HAVE_MPI  -D_CS_HAVE_SOCKET  -D_CS_HAVE_XML     -DNDEBUG  -ansi -funsigned-char -pedantic -W -Wall -Wshadow -Wpointer-arith -Wcast-qual -Wcast-align -Wwrite-strings -Wstrict-prototypes -Wmissing-prototypes -Wmissing-declarations -Wnested-externs -Wno-uninitialized  -O -Wno-unused -c cs_suite.c
In file included from /usr/local/mpichgm-1.2.6.14b-64b/include/mpidefs.h:49,
                 from /usr/local/mpichgm-1.2.6.14b-64b/include/mpi.h:230,
                 from cs_suite.c:17:
/usr/local/mpichgm-1.2.6.14b-64b/include/mpio.h:43: warning: ISO C90 does not support `long long'
In file included from cs_suite.c:25:
/home/saturne/opt/bft-1.0.2/arch/Linux/include/bft_file.h:92: warning: ISO C90 does not support `long long'
cs_syr_coupling.c
/usr/local/mpichgm-1.2.6.14b-64b/bin/mpicc   -I/home/saturne/opt/bft-1.0.2/arch/Linux/include -I/home/saturne/opt/fvm-0.6.1/arch/Linux/include   -I/home/saturne/opt/libxml2-2.6.19/include/libxml2 -D_POSIX_SOURCE -D_CS_HAVE_MPI  -D_CS_HAVE_SOCKET  -D_CS_HAVE_XML     -DNDEBUG  -ansi -funsigned-char -pedantic -W -Wall -Wshadow -Wpointer-arith -Wcast-qual -Wcast-align -Wwrite-strings -Wstrict-prototypes -Wmissing-prototypes -Wmissing-declarations -Wnested-externs -Wno-uninitialized  -O -Wno-unused -c cs_syr_coupling.c
In file included from /usr/local/mpichgm-1.2.6.14b-64b/include/mpidefs.h:49,
                 from /usr/local/mpichgm-1.2.6.14b-64b/include/mpi.h:230,
                 from cs_syr_coupling.c:19:
/usr/local/mpichgm-1.2.6.14b-64b/include/mpio.h:43: warning: ISO C90 does not support `long long'
cs_syr_messages.c
/usr/local/mpichgm-1.2.6.14b-64b/bin/mpicc   -I/home/saturne/opt/bft-1.0.2/arch/Linux/include -I/home/saturne/opt/fvm-0.6.1/arch/Linux/include   -I/home/saturne/opt/libxml2-2.6.19/include/libxml2 -D_POSIX_SOURCE -D_CS_HAVE_MPI  -D_CS_HAVE_SOCKET  -D_CS_HAVE_XML     -DNDEBUG  -ansi -funsigned-char -pedantic -W -Wall -Wshadow -Wpointer-arith -Wcast-qual -Wcast-align -Wwrite-strings -Wstrict-prototypes -Wmissing-prototypes -Wmissing-declarations -Wnested-externs -Wno-uninitialized  -O -Wno-unused -c cs_syr_messages.c
In file included from /usr/local/mpichgm-1.2.6.14b-64b/include/mpidefs.h:49,
                 from /usr/local/mpichgm-1.2.6.14b-64b/include/mpi.h:230,
                 from cs_syr_messages.c:18:
/usr/local/mpichgm-1.2.6.14b-64b/include/mpio.h:43: warning: ISO C90 does not support `long long'
cs_tpar1d.c
/usr/local/mpichgm-1.2.6.14b-64b/bin/mpicc   -I/home/saturne/opt/bft-1.0.2/arch/Linux/include -I/home/saturne/opt/fvm-0.6.1/arch/Linux/include   -I/home/saturne/opt/libxml2-2.6.19/include/libxml2 -D_POSIX_SOURCE -D_CS_HAVE_MPI  -D_CS_HAVE_SOCKET  -D_CS_HAVE_XML     -DNDEBUG  -ansi -funsigned-char -pedantic -W -Wall -Wshadow -Wpointer-arith -Wcast-qual -Wcast-align -Wwrite-strings -Wstrict-prototypes -Wmissing-prototypes -Wmissing-declarations -Wnested-externs -Wno-uninitialized  -O -Wno-unused -c cs_tpar1d.c
In file included from /usr/local/mpichgm-1.2.6.14b-64b/include/mpidefs.h:49,
                 from /usr/local/mpichgm-1.2.6.14b-64b/include/mpi.h:230,
                 from cs_base.h:17,
                 from cs_tpar1d.c:31:
/usr/local/mpichgm-1.2.6.14b-64b/include/mpio.h:43: warning: ISO C90 does not support `long long'
cs_ventil.c
/usr/local/mpichgm-1.2.6.14b-64b/bin/mpicc   -I/home/saturne/opt/bft-1.0.2/arch/Linux/include -I/home/saturne/opt/fvm-0.6.1/arch/Linux/include   -I/home/saturne/opt/libxml2-2.6.19/include/libxml2 -D_POSIX_SOURCE -D_CS_HAVE_MPI  -D_CS_HAVE_SOCKET  -D_CS_HAVE_XML     -DNDEBUG  -ansi -funsigned-char -pedantic -W -Wall -Wshadow -Wpointer-arith -Wcast-qual -Wcast-align -Wwrite-strings -Wstrict-prototypes -Wmissing-prototypes -Wmissing-declarations -Wnested-externs -Wno-uninitialized  -O -Wno-unused -c cs_ventil.c
In file included from /usr/local/mpichgm-1.2.6.14b-64b/include/mpidefs.h:49,
                 from /usr/local/mpichgm-1.2.6.14b-64b/include/mpi.h:230,
                 from cs_base.h:17,
                 from cs_ventil.c:22:
/usr/local/mpichgm-1.2.6.14b-64b/include/mpio.h:43: warning: ISO C90 does not support `long long'
cs_voiset.c
/usr/local/mpichgm-1.2.6.14b-64b/bin/mpicc   -I/home/saturne/opt/bft-1.0.2/arch/Linux/include -I/home/saturne/opt/fvm-0.6.1/arch/Linux/include   -I/home/saturne/opt/libxml2-2.6.19/include/libxml2 -D_POSIX_SOURCE -D_CS_HAVE_MPI  -D_CS_HAVE_SOCKET  -D_CS_HAVE_XML     -DNDEBUG  -ansi -funsigned-char -pedantic -W -Wall -Wshadow -Wpointer-arith -Wcast-qual -Wcast-align -Wwrite-strings -Wstrict-prototypes -Wmissing-prototypes -Wmissing-declarations -Wnested-externs -Wno-uninitialized  -O -Wno-unused -c cs_voiset.c
In file included from /usr/local/mpichgm-1.2.6.14b-64b/include/mpidefs.h:49,
                 from /usr/local/mpichgm-1.2.6.14b-64b/include/mpi.h:230,
                 from cs_base.h:17,
                 from cs_voiset.c:25:
/usr/local/mpichgm-1.2.6.14b-64b/include/mpio.h:43: warning: ISO C90 does not support `long long'
tcpumx.c
/usr/local/mpichgm-1.2.6.14b-64b/bin/mpicc   -I/home/saturne/opt/bft-1.0.2/arch/Linux/include -I/home/saturne/opt/fvm-0.6.1/arch/Linux/include   -I/home/saturne/opt/libxml2-2.6.19/include/libxml2 -D_POSIX_SOURCE -D_CS_HAVE_MPI  -D_CS_HAVE_SOCKET  -D_CS_HAVE_XML     -DNDEBUG  -ansi -funsigned-char -pedantic -W -Wall -Wshadow -Wpointer-arith -Wcast-qual -Wcast-align -Wwrite-strings -Wstrict-prototypes -Wmissing-prototypes -Wmissing-declarations -Wnested-externs -Wno-uninitialized  -O -Wno-unused -c tcpumx.c
In file included from /usr/local/mpichgm-1.2.6.14b-64b/include/mpidefs.h:49,
                 from /usr/local/mpichgm-1.2.6.14b-64b/include/mpi.h:230,
                 from cs_base.h:17,
                 from tcpumx.c:12:
/usr/local/mpichgm-1.2.6.14b-64b/include/mpio.h:43: warning: ISO C90 does not support `long long'
tremai.c
/usr/local/mpichgm-1.2.6.14b-64b/bin/mpicc   -I/home/saturne/opt/bft-1.0.2/arch/Linux/include -I/home/saturne/opt/fvm-0.6.1/arch/Linux/include   -I/home/saturne/opt/libxml2-2.6.19/include/libxml2 -D_POSIX_SOURCE -D_CS_HAVE_MPI  -D_CS_HAVE_SOCKET  -D_CS_HAVE_XML     -DNDEBUG  -ansi -funsigned-char -pedantic -W -Wall -Wshadow -Wpointer-arith -Wcast-qual -Wcast-align -Wwrite-strings -Wstrict-prototypes -Wmissing-prototypes -Wmissing-declarations -Wnested-externs -Wno-uninitialized  -O -Wno-unused -c tremai.c
In file included from /usr/local/mpichgm-1.2.6.14b-64b/include/mpidefs.h:49,
                 from /usr/local/mpichgm-1.2.6.14b-64b/include/mpi.h:230,
                 from cs_base.h:17,
                 from tremai.c:16:
/usr/local/mpichgm-1.2.6.14b-64b/include/mpio.h:43: warning: ISO C90 does not support `long long'
alelap.F
/usr/local/mpichgm-1.2.6.14b-64b/bin/mpif77 -D_CS_HAVE_XML     -fno-silent -I. -O1 -c alelap.F
  alelap:
alemaj.F
/usr/local/mpichgm-1.2.6.14b-64b/bin/mpif77 -D_CS_HAVE_XML     -fno-silent -I. -O1 -c alemaj.F
  alemaj:
altycl.F
/usr/local/mpichgm-1.2.6.14b-64b/bin/mpif77 -D_CS_HAVE_XML     -fno-silent -I. -O1 -c altycl.F
  altycl:
armtps.F
/usr/local/mpichgm-1.2.6.14b-64b/bin/mpif77 -D_CS_HAVE_XML     -fno-silent -I. -O1 -c armtps.F
  armtps:
bilsc2.F
/usr/local/mpichgm-1.2.6.14b-64b/bin/mpif77 -D_CS_HAVE_XML     -fno-silent -I. -O1 -c bilsc2.F
  bilsc2:
calgeo.F
/usr/local/mpichgm-1.2.6.14b-64b/bin/mpif77 -D_CS_HAVE_XML     -fno-silent -I. -O1 -c calgeo.F
  calgeo:
calgrg.F
/usr/local/mpichgm-1.2.6.14b-64b/bin/mpif77 -D_CS_HAVE_XML     -fno-silent -I. -O1 -c calgrg.F
  calgrg:
calhyd.F
/usr/local/mpichgm-1.2.6.14b-64b/bin/mpif77 -D_CS_HAVE_XML     -fno-silent -I. -O1 -c calhyd.F
  calhyd:
calmom.F
/usr/local/mpichgm-1.2.6.14b-64b/bin/mpif77 -D_CS_HAVE_XML     -fno-silent -I. -O1 -c calmom.F
  calmom:
caltri.F
/usr/local/mpichgm-1.2.6.14b-64b/bin/mpif77 -D_CS_HAVE_XML     -fno-silent -I. -O1 -c caltri.F
  caltri:
catsma.F
/usr/local/mpichgm-1.2.6.14b-64b/bin/mpif77 -D_CS_HAVE_XML     -fno-silent -I. -O1 -c catsma.F
  catsma:
causta.F
/usr/local/mpichgm-1.2.6.14b-64b/bin/mpif77 -D_CS_HAVE_XML     -fno-silent -I. -O1 -c causta.F
  causta:
cgstab.F
/usr/local/mpichgm-1.2.6.14b-64b/bin/mpif77 -D_CS_HAVE_XML     -fno-silent -I. -O1 -c cgstab.F
  cgstab:
clca66.F
/usr/local/mpichgm-1.2.6.14b-64b/bin/mpif77 -D_CS_HAVE_XML     -fno-silent -I. -O1 -c clca66.F
  clca66:
cldijp.F
/usr/local/mpichgm-1.2.6.14b-64b/bin/mpif77 -D_CS_HAVE_XML     -fno-silent -I. -O1 -c cldijp.F
  cldijp:
cldipo.F
/usr/local/mpichgm-1.2.6.14b-64b/bin/mpif77 -D_CS_HAVE_XML     -fno-silent -I. -O1 -c cldipo.F
  cldipo:
clipke.F
/usr/local/mpichgm-1.2.6.14b-64b/bin/mpif77 -D_CS_HAVE_XML     -fno-silent -I. -O1 -c clipke.F
  clipke:
clmlga.F
/usr/local/mpichgm-1.2.6.14b-64b/bin/mpif77 -D_CS_HAVE_XML     -fno-silent -I. -O1 -c clmlga.F
  clmlga:
clprij.F
/usr/local/mpichgm-1.2.6.14b-64b/bin/mpif77 -D_CS_HAVE_XML     -fno-silent -I. -O1 -c clprij.F
  clprij:
clpsca.F
/usr/local/mpichgm-1.2.6.14b-64b/bin/mpif77 -D_CS_HAVE_XML     -fno-silent -I. -O1 -c clpsca.F
  clpsca:
clptur.F
/usr/local/mpichgm-1.2.6.14b-64b/bin/mpif77 -D_CS_HAVE_XML     -fno-silent -I. -O1 -c clptur.F
  clptur:
clpv2f.F
/usr/local/mpichgm-1.2.6.14b-64b/bin/mpif77 -D_CS_HAVE_XML     -fno-silent -I. -O1 -c clpv2f.F
  clpv2f:
clsurn.F
/usr/local/mpichgm-1.2.6.14b-64b/bin/mpif77 -D_CS_HAVE_XML     -fno-silent -I. -O1 -c clsurn.F
  clsurn:
clsyvt.F
/usr/local/mpichgm-1.2.6.14b-64b/bin/mpif77 -D_CS_HAVE_XML     -fno-silent -I. -O1 -c clsyvt.F
  clsyvt:
clvolc.F
/usr/local/mpichgm-1.2.6.14b-64b/bin/mpif77 -D_CS_HAVE_XML     -fno-silent -I. -O1 -c clvolc.F
  clvolc:
codits.F
/usr/local/mpichgm-1.2.6.14b-64b/bin/mpif77 -D_CS_HAVE_XML     -fno-silent -I. -O1 -c codits.F
  codits:
condli.F
/usr/local/mpichgm-1.2.6.14b-64b/bin/mpif77 -D_CS_HAVE_XML     -fno-silent -I. -O1 -c condli.F
  condli:
cou1di.F
/usr/local/mpichgm-1.2.6.14b-64b/bin/mpif77 -D_CS_HAVE_XML     -fno-silent -I. -O1 -c cou1di.F
  cou1di:
cou1do.F
/usr/local/mpichgm-1.2.6.14b-64b/bin/mpif77 -D_CS_HAVE_XML     -fno-silent -I. -O1 -c cou1do.F
  cou1do:
coupbi.F
/usr/local/mpichgm-1.2.6.14b-64b/bin/mpif77 -D_CS_HAVE_XML     -fno-silent -I. -O1 -c coupbi.F
  coupbi:
coupbo.F
/usr/local/mpichgm-1.2.6.14b-64b/bin/mpif77 -D_CS_HAVE_XML     -fno-silent -I. -O1 -c coupbo.F
  coupbo:
covofi.F
/usr/local/mpichgm-1.2.6.14b-64b/bin/mpif77 -D_CS_HAVE_XML     -fno-silent -I. -O1 -c covofi.F
  covofi:
cregeo.F
/usr/local/mpichgm-1.2.6.14b-64b/bin/mpif77 -D_CS_HAVE_XML     -fno-silent -I. -O1 -c cregeo.F
  cregeo:
csclli.F
/usr/local/mpichgm-1.2.6.14b-64b/bin/mpif77 -D_CS_HAVE_XML     -fno-silent -I. -O1 -c csclli.F
  csclli:
csflsh.F
/usr/local/mpichgm-1.2.6.14b-64b/bin/mpif77 -D_CS_HAVE_XML     -fno-silent -I. -O1 -c csflsh.F
  csflsh:
csinit.F
/usr/local/mpichgm-1.2.6.14b-64b/bin/mpif77 -D_CS_HAVE_XML     -fno-silent -I. -O1 -c csinit.F
  csinit:
cs_post_util.F
/usr/local/mpichgm-1.2.6.14b-64b/bin/mpif77 -D_CS_HAVE_XML     -fno-silent -I. -O1 -c cs_post_util.F
  pstcwr:
  pstcma:
  psteva:
csprnt.F
/usr/local/mpichgm-1.2.6.14b-64b/bin/mpif77 -D_CS_HAVE_XML     -fno-silent -I. -O1 -c csprnt.F
  csprnt:
cycmgr.F
/usr/local/mpichgm-1.2.6.14b-64b/bin/mpif77 -D_CS_HAVE_XML     -fno-silent -I. -O1 -c cycmgr.F
  cycmgr:
distpr.F
/usr/local/mpichgm-1.2.6.14b-64b/bin/mpif77 -D_CS_HAVE_XML     -fno-silent -I. -O1 -c distpr.F
  distpr:
distyp.F
/usr/local/mpichgm-1.2.6.14b-64b/bin/mpif77 -D_CS_HAVE_XML     -fno-silent -I. -O1 -c distyp.F
  distyp:
divmas.F
/usr/local/mpichgm-1.2.6.14b-64b/bin/mpif77 -D_CS_HAVE_XML     -fno-silent -I. -O1 -c divmas.F
  divmas:
divrij.F
/usr/local/mpichgm-1.2.6.14b-64b/bin/mpif77 -D_CS_HAVE_XML     -fno-silent -I. -O1 -c divrij.F
  divrij:
dttvar.F
/usr/local/mpichgm-1.2.6.14b-64b/bin/mpif77 -D_CS_HAVE_XML     -fno-silent -I. -O1 -c dttvar.F
  dttvar:
dvvpst.F
/usr/local/mpichgm-1.2.6.14b-64b/bin/mpif77 -D_CS_HAVE_XML     -fno-silent -I. -O1 -c dvvpst.F
  dvvpst:
ecrava.F
/usr/local/mpichgm-1.2.6.14b-64b/bin/mpif77 -D_CS_HAVE_XML     -fno-silent -I. -O1 -c ecrava.F
  ecrava:
ecrava.F: In subroutine `ecrava':
/tmp/ccw90dkv.f:302: warning:
         CALL ECRSUI(IMPAVA,RUBRIQ,LEN(RUBRIQ),ITYSUP,NBVAL,IRTYP,IVERS,
              1
/tmp/ccw90dkv.f:374: (continued):
         CALL ECRSUI(IMPAVA,RUBRIQ,LEN(RUBRIQ),ITYSUP,NBVAL,IRTYP,TTCABS,
              2
Argument #7 of `ecrsui' is one type at (2) but is some other type at (1) [info -f g77 M GLOBALS]
/tmp/ccw90dkv.f:302: warning:
         CALL ECRSUI(IMPAVA,RUBRIQ,LEN(RUBRIQ),ITYSUP,NBVAL,IRTYP,IVERS,
              1
/tmp/ccw90dkv.f:461: (continued):
           CALL ECRSUI(IMPAVA,RUBRIQ,LEN(RUBRIQ),ITYSUP,NBVAL,IRTYP,
                2
Argument #7 of `ecrsui' is one type at (2) but is some other type at (1) [info -f g77 M GLOBALS]
/tmp/ccw90dkv.f:302: warning:
         CALL ECRSUI(IMPAVA,RUBRIQ,LEN(RUBRIQ),ITYSUP,NBVAL,IRTYP,IVERS,
              1
/tmp/ccw90dkv.f:634: (continued):
               CALL ECRSUI(IMPAVX,RUBRIQ,LEN(RUBRIQ),ITYSUP,NBVAL,IRTYP,
                    2
Argument #7 of `ecrsui' is one type at (2) but is some other type at (1) [info -f g77 M GLOBALS]
/tmp/ccw90dkv.f:302: warning:
         CALL ECRSUI(IMPAVA,RUBRIQ,LEN(RUBRIQ),ITYSUP,NBVAL,IRTYP,IVERS,
              1
/tmp/ccw90dkv.f:646: (continued):
               CALL ECRSUI(IMPAVX,RUBRIQ,LEN(RUBRIQ),ITYSUP,NBVAL,IRTYP,
                    2
Argument #7 of `ecrsui' is one type at (2) but is some other type at (1) [info -f g77 M GLOBALS]
/tmp/ccw90dkv.f:302: warning:
         CALL ECRSUI(IMPAVA,RUBRIQ,LEN(RUBRIQ),ITYSUP,NBVAL,IRTYP,IVERS,
              1
/tmp/ccw90dkv.f:655: (continued):
               CALL ECRSUI(IMPAVX,RUBRIQ,LEN(RUBRIQ),ITYSUP,NBVAL,IRTYP,
                    2
Argument #7 of `ecrsui' is one type at (2) but is some other type at (1) [info -f g77 M GLOBALS]
/tmp/ccw90dkv.f:302: warning:
         CALL ECRSUI(IMPAVA,RUBRIQ,LEN(RUBRIQ),ITYSUP,NBVAL,IRTYP,IVERS,
              1
/tmp/ccw90dkv.f:677: (continued):
                 CALL ECRSUI(IMPAVX,RUBRIQ,LEN(RUBRIQ),ITYSUP,NBVAL,IRTYP,
                      2
Argument #7 of `ecrsui' is one type at (2) but is some other type at (1) [info -f g77 M GLOBALS]
/tmp/ccw90dkv.f:302: warning:
         CALL ECRSUI(IMPAVA,RUBRIQ,LEN(RUBRIQ),ITYSUP,NBVAL,IRTYP,IVERS,
              1
/tmp/ccw90dkv.f:687: (continued):
               CALL ECRSUI(IMPAVX,RUBRIQ,LEN(RUBRIQ),ITYSUP,NBVAL,IRTYP,
                    2
Argument #7 of `ecrsui' is one type at (2) but is some other type at (1) [info -f g77 M GLOBALS]
/tmp/ccw90dkv.f:302: warning:
         CALL ECRSUI(IMPAVA,RUBRIQ,LEN(RUBRIQ),ITYSUP,NBVAL,IRTYP,IVERS,
              1
/tmp/ccw90dkv.f:699: (continued):
               CALL ECRSUI(IMPAVX,RUBRIQ,LEN(RUBRIQ),ITYSUP,NBVAL,IRTYP,
                    2
Argument #7 of `ecrsui' is one type at (2) but is some other type at (1) [info -f g77 M GLOBALS]
/tmp/ccw90dkv.f:302: warning:
         CALL ECRSUI(IMPAVA,RUBRIQ,LEN(RUBRIQ),ITYSUP,NBVAL,IRTYP,IVERS,
              1
/tmp/ccw90dkv.f:717: (continued):
                 CALL ECRSUI(IMPAVX,RUBRIQ,LEN(RUBRIQ),ITYSUP,NBVAL,IRTYP,
                      2
Argument #7 of `ecrsui' is one type at (2) but is some other type at (1) [info -f g77 M GLOBALS]
/tmp/ccw90dkv.f:302: warning:
         CALL ECRSUI(IMPAVA,RUBRIQ,LEN(RUBRIQ),ITYSUP,NBVAL,IRTYP,IVERS,
              1
/tmp/ccw90dkv.f:741: (continued):
             CALL ECRSUI(IMPAVX,RUBRIQ,LEN(RUBRIQ),ITYSUP,NBVAL,IRTYP,DT,
                  2
Argument #7 of `ecrsui' is one type at (2) but is some other type at (1) [info -f g77 M GLOBALS]
/tmp/ccw90dkv.f:302: warning:
         CALL ECRSUI(IMPAVA,RUBRIQ,LEN(RUBRIQ),ITYSUP,NBVAL,IRTYP,IVERS,
              1
/tmp/ccw90dkv.f:749: (continued):
             CALL ECRSUI(IMPAVX,RUBRIQ,LEN(RUBRIQ),ITYSUP,NBVAL,IRTYP,DT,
                  2
Argument #7 of `ecrsui' is one type at (2) but is some other type at (1) [info -f g77 M GLOBALS]
/tmp/ccw90dkv.f:302: warning:
         CALL ECRSUI(IMPAVA,RUBRIQ,LEN(RUBRIQ),ITYSUP,NBVAL,IRTYP,IVERS,
              1
/tmp/ccw90dkv.f:836: (continued):
                 CALL ECRSUI(IMPAVX,RUBRIQ,LEN(RUBRIQ),ITYSUP,NBVAL,IRTYP,
                      2
Argument #7 of `ecrsui' is one type at (2) but is some other type at (1) [info -f g77 M GLOBALS]
/tmp/ccw90dkv.f:302: warning:
         CALL ECRSUI(IMPAVA,RUBRIQ,LEN(RUBRIQ),ITYSUP,NBVAL,IRTYP,IVERS,
              1
/tmp/ccw90dkv.f:845: (continued):
                 CALL ECRSUI(IMPAVX,RUBRIQ,LEN(RUBRIQ),ITYSUP,NBVAL,IRTYP,
                      2
Argument #7 of `ecrsui' is one type at (2) but is some other type at (1) [info -f g77 M GLOBALS]
/tmp/ccw90dkv.f:302: warning:
         CALL ECRSUI(IMPAVA,RUBRIQ,LEN(RUBRIQ),ITYSUP,NBVAL,IRTYP,IVERS,
              1
/tmp/ccw90dkv.f:926: (continued):
                 CALL ECRSUI(IMPAVX,RUBRIQ,LEN(RUBRIQ),ITYSUP,NBVAL,IRTYP,
                      2
Argument #7 of `ecrsui' is one type at (2) but is some other type at (1) [info -f g77 M GLOBALS]
/tmp/ccw90dkv.f:302: warning:
         CALL ECRSUI(IMPAVA,RUBRIQ,LEN(RUBRIQ),ITYSUP,NBVAL,IRTYP,IVERS,
              1
/tmp/ccw90dkv.f:935: (continued):
                 CALL ECRSUI(IMPAVX,RUBRIQ,LEN(RUBRIQ),ITYSUP,NBVAL,IRTYP,
                      2
Argument #7 of `ecrsui' is one type at (2) but is some other type at (1) [info -f g77 M GLOBALS]
/tmp/ccw90dkv.f:302: warning:
         CALL ECRSUI(IMPAVA,RUBRIQ,LEN(RUBRIQ),ITYSUP,NBVAL,IRTYP,IVERS,
              1
/tmp/ccw90dkv.f:1014: (continued):
             CALL ECRSUI(IMPAVX,RUBRIQ,LEN(RUBRIQ),ITYSUP,NBVAL,IRTYP,
                  2
Argument #7 of `ecrsui' is one type at (2) but is some other type at (1) [info -f g77 M GLOBALS]
/tmp/ccw90dkv.f:302: warning:
         CALL ECRSUI(IMPAVA,RUBRIQ,LEN(RUBRIQ),ITYSUP,NBVAL,IRTYP,IVERS,
              1
/tmp/ccw90dkv.f:1019: (continued):
             CALL ECRSUI(IMPAVX,RUBRIQ,LEN(RUBRIQ),ITYSUP,NBVAL,IRTYP,
                  2
Argument #7 of `ecrsui' is one type at (2) but is some other type at (1) [info -f g77 M GLOBALS]
/tmp/ccw90dkv.f:302: warning:
         CALL ECRSUI(IMPAVA,RUBRIQ,LEN(RUBRIQ),ITYSUP,NBVAL,IRTYP,IVERS,
              1
/tmp/ccw90dkv.f:1028: (continued):
               CALL ECRSUI(IMPAVX,RUBRIQ,LEN(RUBRIQ),ITYSUP,NBVAL,IRTYP,
                    2
Argument #7 of `ecrsui' is one type at (2) but is some other type at (1) [info -f g77 M GLOBALS]
/tmp/ccw90dkv.f:302: warning:
         CALL ECRSUI(IMPAVA,RUBRIQ,LEN(RUBRIQ),ITYSUP,NBVAL,IRTYP,IVERS,
              1
/tmp/ccw90dkv.f:1033: (continued):
               CALL ECRSUI(IMPAVX,RUBRIQ,LEN(RUBRIQ),ITYSUP,NBVAL,IRTYP,
                    2
Argument #7 of `ecrsui' is one type at (2) but is some other type at (1) [info -f g77 M GLOBALS]
/tmp/ccw90dkv.f:302: warning:
         CALL ECRSUI(IMPAVA,RUBRIQ,LEN(RUBRIQ),ITYSUP,NBVAL,IRTYP,IVERS,
              1
/tmp/ccw90dkv.f:1086: (continued):
               CALL ECRSUI(IMPAVX,RUBRIQ,LEN(RUBRIQ),ITYSUP,NBVAL,IRTYP,
                    2
Argument #7 of `ecrsui' is one type at (2) but is some other type at (1) [info -f g77 M GLOBALS]
/tmp/ccw90dkv.f:302: warning:
         CALL ECRSUI(IMPAVA,RUBRIQ,LEN(RUBRIQ),ITYSUP,NBVAL,IRTYP,IVERS,
              1
/tmp/ccw90dkv.f:1091: (continued):
               CALL ECRSUI(IMPAVX,RUBRIQ,LEN(RUBRIQ),ITYSUP,NBVAL,IRTYP,
                    2
Argument #7 of `ecrsui' is one type at (2) but is some other type at (1) [info -f g77 M GLOBALS]
/tmp/ccw90dkv.f:302: warning:
         CALL ECRSUI(IMPAVA,RUBRIQ,LEN(RUBRIQ),ITYSUP,NBVAL,IRTYP,IVERS,
              1
/tmp/ccw90dkv.f:1096: (continued):
               CALL ECRSUI(IMPAVX,RUBRIQ,LEN(RUBRIQ),ITYSUP,NBVAL,IRTYP,
                    2
Argument #7 of `ecrsui' is one type at (2) but is some other type at (1) [info -f g77 M GLOBALS]
/tmp/ccw90dkv.f:302: warning:
         CALL ECRSUI(IMPAVA,RUBRIQ,LEN(RUBRIQ),ITYSUP,NBVAL,IRTYP,IVERS,
              1
/tmp/ccw90dkv.f:1121: (continued):
                 CALL ECRSUI(IMPAVX,RUBRIQ,LEN(RUBRIQ),ITYSUP,NBVAL,IRTYP,
                      2
Argument #7 of `ecrsui' is one type at (2) but is some other type at (1) [info -f g77 M GLOBALS]
/tmp/ccw90dkv.f:302: warning:
         CALL ECRSUI(IMPAVA,RUBRIQ,LEN(RUBRIQ),ITYSUP,NBVAL,IRTYP,IVERS,
              1
/tmp/ccw90dkv.f:1126: (continued):
                 CALL ECRSUI(IMPAVX,RUBRIQ,LEN(RUBRIQ),ITYSUP,NBVAL,IRTYP,
                      2
Argument #7 of `ecrsui' is one type at (2) but is some other type at (1) [info -f g77 M GLOBALS]
/tmp/ccw90dkv.f:302: warning:
         CALL ECRSUI(IMPAVA,RUBRIQ,LEN(RUBRIQ),ITYSUP,NBVAL,IRTYP,IVERS,
              1
/tmp/ccw90dkv.f:1134: (continued):
                 CALL ECRSUI(IMPAVX,RUBRIQ,LEN(RUBRIQ),ITYSUP,NBVAL,IRTYP,
                      2
Argument #7 of `ecrsui' is one type at (2) but is some other type at (1) [info -f g77 M GLOBALS]
/tmp/ccw90dkv.f:302: warning:
         CALL ECRSUI(IMPAVA,RUBRIQ,LEN(RUBRIQ),ITYSUP,NBVAL,IRTYP,IVERS,
              1
/tmp/ccw90dkv.f:1138: (continued):
                 CALL ECRSUI(IMPAVX,RUBRIQ,LEN(RUBRIQ),ITYSUP,NBVAL,IRTYP,
                      2
Argument #7 of `ecrsui' is one type at (2) but is some other type at (1) [info -f g77 M GLOBALS]
/tmp/ccw90dkv.f:302: warning:
         CALL ECRSUI(IMPAVA,RUBRIQ,LEN(RUBRIQ),ITYSUP,NBVAL,IRTYP,IVERS,
              1
/tmp/ccw90dkv.f:1142: (continued):
                 CALL ECRSUI(IMPAVX,RUBRIQ,LEN(RUBRIQ),ITYSUP,NBVAL,IRTYP,
                      2
Argument #7 of `ecrsui' is one type at (2) but is some other type at (1) [info -f g77 M GLOBALS]
/tmp/ccw90dkv.f:302: warning:
         CALL ECRSUI(IMPAVA,RUBRIQ,LEN(RUBRIQ),ITYSUP,NBVAL,IRTYP,IVERS,
              1
/tmp/ccw90dkv.f:1146: (continued):
                 CALL ECRSUI(IMPAVX,RUBRIQ,LEN(RUBRIQ),ITYSUP,NBVAL,IRTYP,
                      2
Argument #7 of `ecrsui' is one type at (2) but is some other type at (1) [info -f g77 M GLOBALS]
/tmp/ccw90dkv.f:302: warning:
         CALL ECRSUI(IMPAVA,RUBRIQ,LEN(RUBRIQ),ITYSUP,NBVAL,IRTYP,IVERS,
              1
/tmp/ccw90dkv.f:1150: (continued):
                 CALL ECRSUI(IMPAVX,RUBRIQ,LEN(RUBRIQ),ITYSUP,NBVAL,IRTYP,
                      2
Argument #7 of `ecrsui' is one type at (2) but is some other type at (1) [info -f g77 M GLOBALS]
/tmp/ccw90dkv.f:302: warning:
         CALL ECRSUI(IMPAVA,RUBRIQ,LEN(RUBRIQ),ITYSUP,NBVAL,IRTYP,IVERS,
              1
/tmp/ccw90dkv.f:1154: (continued):
                 CALL ECRSUI(IMPAVX,RUBRIQ,LEN(RUBRIQ),ITYSUP,NBVAL,IRTYP,
                      2
Argument #7 of `ecrsui' is one type at (2) but is some other type at (1) [info -f g77 M GLOBALS]
/tmp/ccw90dkv.f:302: warning:
         CALL ECRSUI(IMPAVA,RUBRIQ,LEN(RUBRIQ),ITYSUP,NBVAL,IRTYP,IVERS,
              1
/tmp/ccw90dkv.f:1159: (continued):
                 CALL ECRSUI(IMPAVX,RUBRIQ,LEN(RUBRIQ),ITYSUP,NBVAL,IRTYP,
                      2
Argument #7 of `ecrsui' is one type at (2) but is some other type at (1) [info -f g77 M GLOBALS]
/tmp/ccw90dkv.f:302: warning:
         CALL ECRSUI(IMPAVA,RUBRIQ,LEN(RUBRIQ),ITYSUP,NBVAL,IRTYP,IVERS,
              1
/tmp/ccw90dkv.f:1167: (continued):
                 CALL ECRSUI(IMPAVX,RUBRIQ,LEN(RUBRIQ),ITYSUP,NBVAL,IRTYP,
                      2
Argument #7 of `ecrsui' is one type at (2) but is some other type at (1) [info -f g77 M GLOBALS]
/tmp/ccw90dkv.f:302: warning:
         CALL ECRSUI(IMPAVA,RUBRIQ,LEN(RUBRIQ),ITYSUP,NBVAL,IRTYP,IVERS,
              1
/tmp/ccw90dkv.f:1172: (continued):
                 CALL ECRSUI(IMPAVX,RUBRIQ,LEN(RUBRIQ),ITYSUP,NBVAL,IRTYP,
                      2
Argument #7 of `ecrsui' is one type at (2) but is some other type at (1) [info -f g77 M GLOBALS]
/tmp/ccw90dkv.f:302: warning:
         CALL ECRSUI(IMPAVA,RUBRIQ,LEN(RUBRIQ),ITYSUP,NBVAL,IRTYP,IVERS,
              1
/tmp/ccw90dkv.f:1177: (continued):
                 CALL ECRSUI(IMPAVX,RUBRIQ,LEN(RUBRIQ),ITYSUP,NBVAL,IRTYP,
                      2
Argument #7 of `ecrsui' is one type at (2) but is some other type at (1) [info -f g77 M GLOBALS]
/tmp/ccw90dkv.f:302: warning:
         CALL ECRSUI(IMPAVA,RUBRIQ,LEN(RUBRIQ),ITYSUP,NBVAL,IRTYP,IVERS,
              1
/tmp/ccw90dkv.f:1182: (continued):
                 CALL ECRSUI(IMPAVX,RUBRIQ,LEN(RUBRIQ),ITYSUP,NBVAL,IRTYP,
                      2
Argument #7 of `ecrsui' is one type at (2) but is some other type at (1) [info -f g77 M GLOBALS]
/tmp/ccw90dkv.f:302: warning:
         CALL ECRSUI(IMPAVA,RUBRIQ,LEN(RUBRIQ),ITYSUP,NBVAL,IRTYP,IVERS,
              1
/tmp/ccw90dkv.f:1190: (continued):
                 CALL ECRSUI(IMPAVX,RUBRIQ,LEN(RUBRIQ),ITYSUP,NBVAL,IRTYP,
                      2
Argument #7 of `ecrsui' is one type at (2) but is some other type at (1) [info -f g77 M GLOBALS]
/tmp/ccw90dkv.f:302: warning:
         CALL ECRSUI(IMPAVA,RUBRIQ,LEN(RUBRIQ),ITYSUP,NBVAL,IRTYP,IVERS,
              1
/tmp/ccw90dkv.f:1195: (continued):
                 CALL ECRSUI(IMPAVX,RUBRIQ,LEN(RUBRIQ),ITYSUP,NBVAL,IRTYP,
                      2
Argument #7 of `ecrsui' is one type at (2) but is some other type at (1) [info -f g77 M GLOBALS]
/tmp/ccw90dkv.f:302: warning:
         CALL ECRSUI(IMPAVA,RUBRIQ,LEN(RUBRIQ),ITYSUP,NBVAL,IRTYP,IVERS,
              1
/tmp/ccw90dkv.f:1218: (continued):
               CALL ECRSUI(IMPAVX,RUBRIQ,LEN(RUBRIQ),ITYSUP,NBVAL,IRTYP,
                    2
Argument #7 of `ecrsui' is one type at (2) but is some other type at (1) [info -f g77 M GLOBALS]
/tmp/ccw90dkv.f:302: warning:
         CALL ECRSUI(IMPAVA,RUBRIQ,LEN(RUBRIQ),ITYSUP,NBVAL,IRTYP,IVERS,
              1
/tmp/ccw90dkv.f:1256: (continued):
             CALL ECRSUI(IMPAVX,RUBRIQ,LEN(RUBRIQ),ITYSUP,NBVAL,IRTYP,
                  2
Argument #7 of `ecrsui' is one type at (2) but is some other type at (1) [info -f g77 M GLOBALS]
/tmp/ccw90dkv.f:302: warning:
         CALL ECRSUI(IMPAVA,RUBRIQ,LEN(RUBRIQ),ITYSUP,NBVAL,IRTYP,IVERS,
              1
/tmp/ccw90dkv.f:1297: (continued):
                 CALL ECRSUI(IMPAVX,RUBRIQ,LEN(RUBRIQ),ITYSUP,NBVAL,IRTYP,
                      2
Argument #7 of `ecrsui' is one type at (2) but is some other type at (1) [info -f g77 M GLOBALS]
/tmp/ccw90dkv.f:302: warning:
         CALL ECRSUI(IMPAVA,RUBRIQ,LEN(RUBRIQ),ITYSUP,NBVAL,IRTYP,IVERS,
              1
/tmp/ccw90dkv.f:1330: (continued):
                 CALL ECRSUI(IMPAVX,RUBRIQ,LEN(RUBRIQ),ITYSUP,NBVAL,IRTYP,
                      2
Argument #7 of `ecrsui' is one type at (2) but is some other type at (1) [info -f g77 M GLOBALS]
/tmp/ccw90dkv.f:302: warning:
         CALL ECRSUI(IMPAVA,RUBRIQ,LEN(RUBRIQ),ITYSUP,NBVAL,IRTYP,IVERS,
              1
/tmp/ccw90dkv.f:1398: (continued):
                 CALL ECRSUI(IMPAVX,RUBRIQ,LEN(RUBRIQ),ITYSUP,NBVAL,IRTYP,
                      2
Argument #7 of `ecrsui' is one type at (2) but is some other type at (1) [info -f g77 M GLOBALS]
/tmp/ccw90dkv.f:302: warning:
         CALL ECRSUI(IMPAVA,RUBRIQ,LEN(RUBRIQ),ITYSUP,NBVAL,IRTYP,IVERS,
              1
/tmp/ccw90dkv.f:1411: (continued):
               CALL ECRSUI(IMPAVX,RUBRIQ,LEN(RUBRIQ),ITYSUP,NBVAL,IRTYP,
                    2
Argument #7 of `ecrsui' is one type at (2) but is some other type at (1) [info -f g77 M GLOBALS]
/tmp/ccw90dkv.f:302: warning:
         CALL ECRSUI(IMPAVA,RUBRIQ,LEN(RUBRIQ),ITYSUP,NBVAL,IRTYP,IVERS,
              1
/tmp/ccw90dkv.f:1439: (continued):
               CALL ECRSUI(IMPAVX,RUBRIQ,LEN(RUBRIQ),ITYSUP,NBVAL,IRTYP,
                    2
Argument #7 of `ecrsui' is one type at (2) but is some other type at (1) [info -f g77 M GLOBALS]
/tmp/ccw90dkv.f:302: warning:
         CALL ECRSUI(IMPAVA,RUBRIQ,LEN(RUBRIQ),ITYSUP,NBVAL,IRTYP,IVERS,
              1
/tmp/ccw90dkv.f:1444: (continued):
               CALL ECRSUI(IMPAVX,RUBRIQ,LEN(RUBRIQ),ITYSUP,NBVAL,IRTYP,
                    2
Argument #7 of `ecrsui' is one type at (2) but is some other type at (1) [info -f g77 M GLOBALS]
/tmp/ccw90dkv.f:302: warning:
         CALL ECRSUI(IMPAVA,RUBRIQ,LEN(RUBRIQ),ITYSUP,NBVAL,IRTYP,IVERS,
              1
/tmp/ccw90dkv.f:1449: (continued):
               CALL ECRSUI(IMPAVX,RUBRIQ,LEN(RUBRIQ),ITYSUP,NBVAL,IRTYP,
                    2
Argument #7 of `ecrsui' is one type at (2) but is some other type at (1) [info -f g77 M GLOBALS]
/tmp/ccw90dkv.f:302: warning:
         CALL ECRSUI(IMPAVA,RUBRIQ,LEN(RUBRIQ),ITYSUP,NBVAL,IRTYP,IVERS,
              1
/tmp/ccw90dkv.f:1475: (continued):
             CALL ECRSUI(IMPAVX,RUBRIQ,LEN(RUBRIQ),ITYSUP,NBVAL,IRTYP,
                  2
Argument #7 of `ecrsui' is one type at (2) but is some other type at (1) [info -f g77 M GLOBALS]
/tmp/ccw90dkv.f:302: warning:
         CALL ECRSUI(IMPAVA,RUBRIQ,LEN(RUBRIQ),ITYSUP,NBVAL,IRTYP,IVERS,
              1
/tmp/ccw90dkv.f:1479: (continued):
             CALL ECRSUI(IMPAVX,RUBRIQ,LEN(RUBRIQ),ITYSUP,NBVAL,IRTYP,
                  2
Argument #7 of `ecrsui' is one type at (2) but is some other type at (1) [info -f g77 M GLOBALS]
/tmp/ccw90dkv.f:302: warning:
         CALL ECRSUI(IMPAVA,RUBRIQ,LEN(RUBRIQ),ITYSUP,NBVAL,IRTYP,IVERS,
              1
/tmp/ccw90dkv.f:1483: (continued):
             CALL ECRSUI(IMPAVX,RUBRIQ,LEN(RUBRIQ),ITYSUP,NBVAL,IRTYP,
                  2
Argument #7 of `ecrsui' is one type at (2) but is some other type at (1) [info -f g77 M GLOBALS]
/tmp/ccw90dkv.f:302: warning:
         CALL ECRSUI(IMPAVA,RUBRIQ,LEN(RUBRIQ),ITYSUP,NBVAL,IRTYP,IVERS,
              1
/tmp/ccw90dkv.f:1500: (continued):
             CALL ECRSUI(IMPAVX,RUBRIQ,LEN(RUBRIQ),ITYSUP,NBVAL,IRTYP,
                  2
Argument #7 of `ecrsui' is one type at (2) but is some other type at (1) [info -f g77 M GLOBALS]
/tmp/ccw90dkv.f:302: warning:
         CALL ECRSUI(IMPAVA,RUBRIQ,LEN(RUBRIQ),ITYSUP,NBVAL,IRTYP,IVERS,
              1
/tmp/ccw90dkv.f:1548: (continued):
                 CALL ECRSUI(IMPAVX,RUBRIQ,LEN(RUBRIQ),ITYSUP,NBVAL,IRTYP,
                      2
Argument #7 of `ecrsui' is one type at (2) but is some other type at (1) [info -f g77 M GLOBALS]
/tmp/ccw90dkv.f:302: warning:
         CALL ECRSUI(IMPAVA,RUBRIQ,LEN(RUBRIQ),ITYSUP,NBVAL,IRTYP,IVERS,
              1
/tmp/ccw90dkv.f:1579: (continued):
             CALL ECRSUI(IMPAVX,RUBRIQ,LEN(RUBRIQ),ITYSUP,NBVAL,IRTYP,
                  2
Argument #7 of `ecrsui' is one type at (2) but is some other type at (1) [info -f g77 M GLOBALS]
/tmp/ccw90dkv.f:302: warning:
         CALL ECRSUI(IMPAVA,RUBRIQ,LEN(RUBRIQ),ITYSUP,NBVAL,IRTYP,IVERS,
              1
/tmp/ccw90dkv.f:1587: (continued):
             CALL ECRSUI(IMPAVX,RUBRIQ,LEN(RUBRIQ),ITYSUP,NBVAL,IRTYP,
                  2
Argument #7 of `ecrsui' is one type at (2) but is some other type at (1) [info -f g77 M GLOBALS]
/tmp/ccw90dkv.f:302: warning:
         CALL ECRSUI(IMPAVA,RUBRIQ,LEN(RUBRIQ),ITYSUP,NBVAL,IRTYP,IVERS,
              1
/tmp/ccw90dkv.f:1595: (continued):
             CALL ECRSUI(IMPAVX,RUBRIQ,LEN(RUBRIQ),ITYSUP,NBVAL,IRTYP,
                  2
Argument #7 of `ecrsui' is one type at (2) but is some other type at (1) [info -f g77 M GLOBALS]
/tmp/ccw90dkv.f:302: warning:
         CALL ECRSUI(IMPAVA,RUBRIQ,LEN(RUBRIQ),ITYSUP,NBVAL,IRTYP,IVERS,
              1
/tmp/ccw90dkv.f:1603: (continued):
             CALL ECRSUI(IMPAVX,RUBRIQ,LEN(RUBRIQ),ITYSUP,NBVAL,IRTYP,
                  2
Argument #7 of `ecrsui' is one type at (2) but is some other type at (1) [info -f g77 M GLOBALS]
/tmp/ccw90dkv.f:302: warning:
         CALL ECRSUI(IMPAVA,RUBRIQ,LEN(RUBRIQ),ITYSUP,NBVAL,IRTYP,IVERS,
              1
/tmp/ccw90dkv.f:1656: (continued):
             CALL ECRSUI(IMPAVX,RUBRIQ,LEN(RUBRIQ),ITYSUP,NBVAL,IRTYP,
                  2
Argument #7 of `ecrsui' is one type at (2) but is some other type at (1) [info -f g77 M GLOBALS]
/tmp/ccw90dkv.f:302: warning:
         CALL ECRSUI(IMPAVA,RUBRIQ,LEN(RUBRIQ),ITYSUP,NBVAL,IRTYP,IVERS,
              1
/tmp/ccw90dkv.f:1664: (continued):
             CALL ECRSUI(IMPAVX,RUBRIQ,LEN(RUBRIQ),ITYSUP,NBVAL,IRTYP,
                  2
Argument #7 of `ecrsui' is one type at (2) but is some other type at (1) [info -f g77 M GLOBALS]
/tmp/ccw90dkv.f:302: warning:
         CALL ECRSUI(IMPAVA,RUBRIQ,LEN(RUBRIQ),ITYSUP,NBVAL,IRTYP,IVERS,
              1
/tmp/ccw90dkv.f:1700: (continued):
             CALL ECRSUI(IMPAVX,RUBRIQ,LEN(RUBRIQ),ITYSUP,NBVAL,IRTYP,
                  2
Argument #7 of `ecrsui' is one type at (2) but is some other type at (1) [info -f g77 M GLOBALS]
/tmp/ccw90dkv.f:302: warning:
         CALL ECRSUI(IMPAVA,RUBRIQ,LEN(RUBRIQ),ITYSUP,NBVAL,IRTYP,IVERS,
              1
/tmp/ccw90dkv.f:1709: (continued):
             CALL ECRSUI(IMPAVX,RUBRIQ,LEN(RUBRIQ),ITYSUP,NBVAL,IRTYP,
                  2
Argument #7 of `ecrsui' is one type at (2) but is some other type at (1) [info -f g77 M GLOBALS]
/tmp/ccw90dkv.f:302: warning:
         CALL ECRSUI(IMPAVA,RUBRIQ,LEN(RUBRIQ),ITYSUP,NBVAL,IRTYP,IVERS,
              1
/tmp/ccw90dkv.f:1735: (continued):
             CALL ECRSUI(IMPAVX,RUBRIQ,LEN(RUBRIQ),ITYSUP,NBVAL,IRTYP,
                  2
Argument #7 of `ecrsui' is one type at (2) but is some other type at (1) [info -f g77 M GLOBALS]
/tmp/ccw90dkv.f:302: warning:
         CALL ECRSUI(IMPAVA,RUBRIQ,LEN(RUBRIQ),ITYSUP,NBVAL,IRTYP,IVERS,
              1
/tmp/ccw90dkv.f:1743: (continued):
             CALL ECRSUI(IMPAVX,RUBRIQ,LEN(RUBRIQ),ITYSUP,NBVAL,IRTYP,
                  2
Argument #7 of `ecrsui' is one type at (2) but is some other type at (1) [info -f g77 M GLOBALS]
/tmp/ccw90dkv.f:302: warning:
         CALL ECRSUI(IMPAVA,RUBRIQ,LEN(RUBRIQ),ITYSUP,NBVAL,IRTYP,IVERS,
              1
/tmp/ccw90dkv.f:1751: (continued):
             CALL ECRSUI(IMPAVX,RUBRIQ,LEN(RUBRIQ),ITYSUP,NBVAL,IRTYP,
                  2
Argument #7 of `ecrsui' is one type at (2) but is some other type at (1) [info -f g77 M GLOBALS]
/tmp/ccw90dkv.f:302: warning:
         CALL ECRSUI(IMPAVA,RUBRIQ,LEN(RUBRIQ),ITYSUP,NBVAL,IRTYP,IVERS,
              1
/tmp/ccw90dkv.f:1759: (continued):
             CALL ECRSUI(IMPAVX,RUBRIQ,LEN(RUBRIQ),ITYSUP,NBVAL,IRTYP,
                  2
Argument #7 of `ecrsui' is one type at (2) but is some other type at (1) [info -f g77 M GLOBALS]
/tmp/ccw90dkv.f:302: warning:
         CALL ECRSUI(IMPAVA,RUBRIQ,LEN(RUBRIQ),ITYSUP,NBVAL,IRTYP,IVERS,
              1
/tmp/ccw90dkv.f:1795: (continued):
             CALL ECRSUI(IMPAVX,RUBRIQ,LEN(RUBRIQ),ITYSUP,NBVAL,IRTYP,
                  2
Argument #7 of `ecrsui' is one type at (2) but is some other type at (1) [info -f g77 M GLOBALS]
/tmp/ccw90dkv.f:302: warning:
         CALL ECRSUI(IMPAVA,RUBRIQ,LEN(RUBRIQ),ITYSUP,NBVAL,IRTYP,IVERS,
              1
/tmp/ccw90dkv.f:1804: (continued):
             CALL ECRSUI(IMPAVX,RUBRIQ,LEN(RUBRIQ),ITYSUP,NBVAL,IRTYP,
                  2
Argument #7 of `ecrsui' is one type at (2) but is some other type at (1) [info -f g77 M GLOBALS]
/tmp/ccw90dkv.f:302: warning:
         CALL ECRSUI(IMPAVA,RUBRIQ,LEN(RUBRIQ),ITYSUP,NBVAL,IRTYP,IVERS,
              1
/tmp/ccw90dkv.f:1838: (continued):
               CALL ECRSUI(IMPAVX,RUBRIQ,LEN(RUBRIQ),ITYSUP,NBVAL,IRTYP,
                    2
Argument #7 of `ecrsui' is one type at (2) but is some other type at (1) [info -f g77 M GLOBALS]
/tmp/ccw90dkv.f:302: warning:
         CALL ECRSUI(IMPAVA,RUBRIQ,LEN(RUBRIQ),ITYSUP,NBVAL,IRTYP,IVERS,
              1
/tmp/ccw90dkv.f:1894: (continued):
                   CALL ECRSUI(IMPAVX,RUBRIQ,LEN(RUBRIQ),ITYSUP,NBVAL,
                        2
Argument #7 of `ecrsui' is one type at (2) but is some other type at (1) [info -f g77 M GLOBALS]
/tmp/ccw90dkv.f:302: warning:
         CALL ECRSUI(IMPAVA,RUBRIQ,LEN(RUBRIQ),ITYSUP,NBVAL,IRTYP,IVERS,
              1
/tmp/ccw90dkv.f:1908: (continued):
             CALL ECRSUI(IMPAVX,RUBRIQ,LEN(RUBRIQ),ITYSUP,NBVAL,IRTYP,
                  2
Argument #7 of `ecrsui' is one type at (2) but is some other type at (1) [info -f g77 M GLOBALS]
/tmp/ccw90dkv.f:302: warning:
         CALL ECRSUI(IMPAVA,RUBRIQ,LEN(RUBRIQ),ITYSUP,NBVAL,IRTYP,IVERS,
              1
/tmp/ccw90dkv.f:1941: (continued):
               CALL ECRSUI(IMPAVX,RUBRIQ,LEN(RUBRIQ),ITYSUP,NBVAL,IRTYP,
                    2
Argument #7 of `ecrsui' is one type at (2) but is some other type at (1) [info -f g77 M GLOBALS]
/tmp/ccw90dkv.f:302: warning:
         CALL ECRSUI(IMPAVA,RUBRIQ,LEN(RUBRIQ),ITYSUP,NBVAL,IRTYP,IVERS,
              1
/tmp/ccw90dkv.f:1957: (continued):
               CALL ECRSUI(IMPAVX,RUBRIQ,LEN(RUBRIQ),ITYSUP,NBVAL,IRTYP,
                    2
Argument #7 of `ecrsui' is one type at (2) but is some other type at (1) [info -f g77 M GLOBALS]
/tmp/ccw90dkv.f:302: warning:
         CALL ECRSUI(IMPAVA,RUBRIQ,LEN(RUBRIQ),ITYSUP,NBVAL,IRTYP,IVERS,
              1
/tmp/ccw90dkv.f:1977: (continued):
             CALL ECRSUI(IMPAVX,RUBRIQ,LEN(RUBRIQ),ITYSUP,NBVAL,IRTYP,
                  2
Argument #7 of `ecrsui' is one type at (2) but is some other type at (1) [info -f g77 M GLOBALS]
/tmp/ccw90dkv.f:302: warning:
         CALL ECRSUI(IMPAVA,RUBRIQ,LEN(RUBRIQ),ITYSUP,NBVAL,IRTYP,IVERS,
              1
/tmp/ccw90dkv.f:1994: (continued):
             CALL ECRSUI(IMPAVX,RUBRIQ,LEN(RUBRIQ),ITYSUP,NBVAL,IRTYP,
                  2
Argument #7 of `ecrsui' is one type at (2) but is some other type at (1) [info -f g77 M GLOBALS]
/tmp/ccw90dkv.f:302: warning:
         CALL ECRSUI(IMPAVA,RUBRIQ,LEN(RUBRIQ),ITYSUP,NBVAL,IRTYP,IVERS,
              1
/tmp/ccw90dkv.f:1999: (continued):
             CALL ECRSUI(IMPAVX,RUBRIQ,LEN(RUBRIQ),ITYSUP,NBVAL,IRTYP,
                  2
Argument #7 of `ecrsui' is one type at (2) but is some other type at (1) [info -f g77 M GLOBALS]
/tmp/ccw90dkv.f:302: warning:
         CALL ECRSUI(IMPAVA,RUBRIQ,LEN(RUBRIQ),ITYSUP,NBVAL,IRTYP,IVERS,
              1
/tmp/ccw90dkv.f:2004: (continued):
             CALL ECRSUI(IMPAVX,RUBRIQ,LEN(RUBRIQ),ITYSUP,NBVAL,IRTYP,
                  2
Argument #7 of `ecrsui' is one type at (2) but is some other type at (1) [info -f g77 M GLOBALS]
ecrhis.F
/usr/local/mpichgm-1.2.6.14b-64b/bin/mpif77 -D_CS_HAVE_XML     -fno-silent -I. -O1 -c ecrhis.F
  ecrhis:
ecrlis.F
/usr/local/mpichgm-1.2.6.14b-64b/bin/mpif77 -D_CS_HAVE_XML     -fno-silent -I. -O1 -c ecrlis.F
  ecrlis:
filtre.F
/usr/local/mpichgm-1.2.6.14b-64b/bin/mpif77 -D_CS_HAVE_XML     -fno-silent -I. -O1 -c filtre.F
  filtre:
findpt.F
/usr/local/mpichgm-1.2.6.14b-64b/bin/mpif77 -D_CS_HAVE_XML     -fno-silent -I. -O1 -c findpt.F
  findpt:
grdcel.F
/usr/local/mpichgm-1.2.6.14b-64b/bin/mpif77 -D_CS_HAVE_XML     -fno-silent -I. -O1 -c grdcel.F
  grdcel:
hturbp.F
/usr/local/mpichgm-1.2.6.14b-64b/bin/mpif77 -D_CS_HAVE_XML     -fno-silent -I. -O1 -c hturbp.F
  hturbp:
iasize.F
/usr/local/mpichgm-1.2.6.14b-64b/bin/mpif77 -D_CS_HAVE_XML     -fno-silent -I. -O1 -c iasize.F
  iasize:
idrbla.F
/usr/local/mpichgm-1.2.6.14b-64b/bin/mpif77 -D_CS_HAVE_XML     -fno-silent -I. -O1 -c idrbla.F
  idrbla:
impini.F
/usr/local/mpichgm-1.2.6.14b-64b/bin/mpif77 -D_CS_HAVE_XML     -fno-silent -I. -O1 -c impini.F
  impini:
iniini.F
/usr/local/mpichgm-1.2.6.14b-64b/bin/mpif77 -D_CS_HAVE_XML     -fno-silent -I. -O1 -c iniini.F
  iniini:
inimas.F
/usr/local/mpichgm-1.2.6.14b-64b/bin/mpif77 -D_CS_HAVE_XML     -fno-silent -I. -O1 -c inimas.F
  inimas:
inipst.F
/usr/local/mpichgm-1.2.6.14b-64b/bin/mpif77 -D_CS_HAVE_XML     -fno-silent -I. -O1 -c inipst.F
  inipst:
initi1.F
/usr/local/mpichgm-1.2.6.14b-64b/bin/mpif77 -D_CS_HAVE_XML     -fno-silent -I. -O1 -c initi1.F
  initi1:
initi2.F
/usr/local/mpichgm-1.2.6.14b-64b/bin/mpif77 -D_CS_HAVE_XML     -fno-silent -I. -O1 -c initi2.F
  initi2:
iniusi.F
/usr/local/mpichgm-1.2.6.14b-64b/bin/mpif77 -D_CS_HAVE_XML     -fno-silent -I. -O1 -c iniusi.F
  iniusi:
iniva0.F
/usr/local/mpichgm-1.2.6.14b-64b/bin/mpif77 -D_CS_HAVE_XML     -fno-silent -I. -O1 -c iniva0.F
  iniva0:
inivar.F
/usr/local/mpichgm-1.2.6.14b-64b/bin/mpif77 -D_CS_HAVE_XML     -fno-silent -I. -O1 -c inivar.F
  inivar:
invers.F
/usr/local/mpichgm-1.2.6.14b-64b/bin/mpif77 -D_CS_HAVE_XML     -fno-silent -I. -O1 -c invers.F
  invers:
iprbla.F
/usr/local/mpichgm-1.2.6.14b-64b/bin/mpif77 -D_CS_HAVE_XML     -fno-silent -I. -O1 -c iprbla.F
  iprbla:
itrgrp.F
/usr/local/mpichgm-1.2.6.14b-64b/bin/mpif77 -D_CS_HAVE_XML     -fno-silent -I. -O1 -c itrgrp.F
  itrgrp:
itrmas.F
/usr/local/mpichgm-1.2.6.14b-64b/bin/mpif77 -D_CS_HAVE_XML     -fno-silent -I. -O1 -c itrmas.F
  itrmas:
lecamo.F
/usr/local/mpichgm-1.2.6.14b-64b/bin/mpif77 -D_CS_HAVE_XML     -fno-silent -I. -O1 -c lecamo.F
  lecamo:
lecamp.F
/usr/local/mpichgm-1.2.6.14b-64b/bin/mpif77 -D_CS_HAVE_XML     -fno-silent -I. -O1 -c lecamp.F
  lecamp:
lecamp.F: In subroutine `lecamp':
/tmp/ccXv777v.f:194: warning:
         CALL LECSUI(IMPAMO,RUBRIQ,LEN(RUBRIQ),ITYSUP,NBVAL,IRTYP,IVERS,
              1
/tmp/ccXv777v.f:375: (continued):
         CALL LECSUI(IMPAMO,RUBRIQ,LEN(RUBRIQ),ITYSUP,NBVAL,IRTYP,TTPABS,
              2
Argument #7 of `lecsui' is one type at (2) but is some other type at (1) [info -f g77 M GLOBALS]
/tmp/ccXv777v.f:194: warning:
         CALL LECSUI(IMPAMO,RUBRIQ,LEN(RUBRIQ),ITYSUP,NBVAL,IRTYP,IVERS,
              1
/tmp/ccXv777v.f:461: (continued):
         CALL LECSUI(IMPAMO,RUBRIQ,LEN(RUBRIQ),ITYSUP,NBVAL,IRTYP,
              2
Argument #7 of `lecsui' is one type at (2) but is some other type at (1) [info -f g77 M GLOBALS]
/tmp/ccXv777v.f:194: warning:
         CALL LECSUI(IMPAMO,RUBRIQ,LEN(RUBRIQ),ITYSUP,NBVAL,IRTYP,IVERS,
              1
/tmp/ccXv777v.f:485: (continued):
            CALL LECSUI(IMPAMO,RUBRIQ,LEN(RUBRIQ),ITYSUP,NBVAL,IRTYP,
                 2
Argument #7 of `lecsui' is one type at (2) but is some other type at (1) [info -f g77 M GLOBALS]
/tmp/ccXv777v.f:194: warning:
         CALL LECSUI(IMPAMO,RUBRIQ,LEN(RUBRIQ),ITYSUP,NBVAL,IRTYP,IVERS,
              1
/tmp/ccXv777v.f:490: (continued):
            CALL LECSUI(IMPAMO,RUBRIQ,LEN(RUBRIQ),ITYSUP,NBVAL,IRTYP,
                 2
Argument #7 of `lecsui' is one type at (2) but is some other type at (1) [info -f g77 M GLOBALS]
/tmp/ccXv777v.f:194: warning:
         CALL LECSUI(IMPAMO,RUBRIQ,LEN(RUBRIQ),ITYSUP,NBVAL,IRTYP,IVERS,
              1
/tmp/ccXv777v.f:495: (continued):
            CALL LECSUI(IMPAMO,RUBRIQ,LEN(RUBRIQ),ITYSUP,NBVAL,IRTYP,
                 2
Argument #7 of `lecsui' is one type at (2) but is some other type at (1) [info -f g77 M GLOBALS]
/tmp/ccXv777v.f:194: warning:
         CALL LECSUI(IMPAMO,RUBRIQ,LEN(RUBRIQ),ITYSUP,NBVAL,IRTYP,IVERS,
              1
/tmp/ccXv777v.f:522: (continued):
               CALL LECSUI(IMPAMO,RUBRIQ,LEN(RUBRIQ),ITYSUP,NBVAL,IRTYP,
                    2
Argument #7 of `lecsui' is one type at (2) but is some other type at (1) [info -f g77 M GLOBALS]
/tmp/ccXv777v.f:194: warning:
         CALL LECSUI(IMPAMO,RUBRIQ,LEN(RUBRIQ),ITYSUP,NBVAL,IRTYP,IVERS,
              1
/tmp/ccXv777v.f:527: (continued):
               CALL LECSUI(IMPAMO,RUBRIQ,LEN(RUBRIQ),ITYSUP,NBVAL,IRTYP,
                    2
Argument #7 of `lecsui' is one type at (2) but is some other type at (1) [info -f g77 M GLOBALS]
/tmp/ccXv777v.f:194: warning:
         CALL LECSUI(IMPAMO,RUBRIQ,LEN(RUBRIQ),ITYSUP,NBVAL,IRTYP,IVERS,
              1
/tmp/ccXv777v.f:543: (continued):
                CALL LECSUI(IMPAMO,RUBRIQ,LEN(RUBRIQ),ITYSUP,NBVAL,IRTYP,
                     2
Argument #7 of `lecsui' is one type at (2) but is some other type at (1) [info -f g77 M GLOBALS]
/tmp/ccXv777v.f:194: warning:
         CALL LECSUI(IMPAMO,RUBRIQ,LEN(RUBRIQ),ITYSUP,NBVAL,IRTYP,IVERS,
              1
/tmp/ccXv777v.f:549: (continued):
                CALL LECSUI(IMPAMO,RUBRIQ,LEN(RUBRIQ),ITYSUP,NBVAL,IRTYP,
                     2
Argument #7 of `lecsui' is one type at (2) but is some other type at (1) [info -f g77 M GLOBALS]
/tmp/ccXv777v.f:194: warning:
         CALL LECSUI(IMPAMO,RUBRIQ,LEN(RUBRIQ),ITYSUP,NBVAL,IRTYP,IVERS,
              1
/tmp/ccXv777v.f:558: (continued):
                CALL LECSUI(IMPAMO,RUBRIQ,LEN(RUBRIQ),ITYSUP,NBVAL,IRTYP,
                     2
Argument #7 of `lecsui' is one type at (2) but is some other type at (1) [info -f g77 M GLOBALS]
/tmp/ccXv777v.f:194: warning:
         CALL LECSUI(IMPAMO,RUBRIQ,LEN(RUBRIQ),ITYSUP,NBVAL,IRTYP,IVERS,
              1
/tmp/ccXv777v.f:567: (continued):
                CALL LECSUI(IMPAMO,RUBRIQ,LEN(RUBRIQ),ITYSUP,NBVAL,IRTYP,
                     2
Argument #7 of `lecsui' is one type at (2) but is some other type at (1) [info -f g77 M GLOBALS]
/tmp/ccXv777v.f:194: warning:
         CALL LECSUI(IMPAMO,RUBRIQ,LEN(RUBRIQ),ITYSUP,NBVAL,IRTYP,IVERS,
              1
/tmp/ccXv777v.f:583: (continued):
               CALL LECSUI(IMPAMO,RUBRIQ,LEN(RUBRIQ),ITYSUP,NBVAL,IRTYP,
                    2
Argument #7 of `lecsui' is one type at (2) but is some other type at (1) [info -f g77 M GLOBALS]
/tmp/ccXv777v.f:194: warning:
         CALL LECSUI(IMPAMO,RUBRIQ,LEN(RUBRIQ),ITYSUP,NBVAL,IRTYP,IVERS,
              1
/tmp/ccXv777v.f:588: (continued):
               CALL LECSUI(IMPAMO,RUBRIQ,LEN(RUBRIQ),ITYSUP,NBVAL,IRTYP,
                    2
Argument #7 of `lecsui' is one type at (2) but is some other type at (1) [info -f g77 M GLOBALS]
/tmp/ccXv777v.f:194: warning:
         CALL LECSUI(IMPAMO,RUBRIQ,LEN(RUBRIQ),ITYSUP,NBVAL,IRTYP,IVERS,
              1
/tmp/ccXv777v.f:620: (continued):
                CALL LECSUI(IMPAMO,RUBRIQ,LEN(RUBRIQ),ITYSUP,NBVAL,IRTYP,
                     2
Argument #7 of `lecsui' is one type at (2) but is some other type at (1) [info -f g77 M GLOBALS]
/tmp/ccXv777v.f:194: warning:
         CALL LECSUI(IMPAMO,RUBRIQ,LEN(RUBRIQ),ITYSUP,NBVAL,IRTYP,IVERS,
              1
/tmp/ccXv777v.f:636: (continued):
                CALL LECSUI(IMPAMO,RUBRIQ,LEN(RUBRIQ),ITYSUP,NBVAL,IRTYP,
                     2
Argument #7 of `lecsui' is one type at (2) but is some other type at (1) [info -f g77 M GLOBALS]
/tmp/ccXv777v.f:194: warning:
         CALL LECSUI(IMPAMO,RUBRIQ,LEN(RUBRIQ),ITYSUP,NBVAL,IRTYP,IVERS,
              1
/tmp/ccXv777v.f:670: (continued):
               CALL LECSUI(IMPAMO,RUBRIQ,LEN(RUBRIQ),ITYSUP,NBVAL,IRTYP,
                    2
Argument #7 of `lecsui' is one type at (2) but is some other type at (1) [info -f g77 M GLOBALS]
/tmp/ccXv777v.f:194: warning:
         CALL LECSUI(IMPAMO,RUBRIQ,LEN(RUBRIQ),ITYSUP,NBVAL,IRTYP,IVERS,
              1
/tmp/ccXv777v.f:692: (continued):
               CALL LECSUI(IMPAMO,RUBRIQ,LEN(RUBRIQ),ITYSUP,NBVAL,IRTYP,
                    2
Argument #7 of `lecsui' is one type at (2) but is some other type at (1) [info -f g77 M GLOBALS]
/tmp/ccXv777v.f:194: warning:
         CALL LECSUI(IMPAMO,RUBRIQ,LEN(RUBRIQ),ITYSUP,NBVAL,IRTYP,IVERS,
              1
/tmp/ccXv777v.f:697: (continued):
               CALL LECSUI(IMPAMO,RUBRIQ,LEN(RUBRIQ),ITYSUP,NBVAL,IRTYP,
                    2
Argument #7 of `lecsui' is one type at (2) but is some other type at (1) [info -f g77 M GLOBALS]
/tmp/ccXv777v.f:194: warning:
         CALL LECSUI(IMPAMO,RUBRIQ,LEN(RUBRIQ),ITYSUP,NBVAL,IRTYP,IVERS,
              1
/tmp/ccXv777v.f:732: (continued):
               CALL LECSUI(IMPAMO,RUBRIQ,LEN(RUBRIQ),ITYSUP,NBVAL,IRTYP,
                    2
Argument #7 of `lecsui' is one type at (2) but is some other type at (1) [info -f g77 M GLOBALS]
/tmp/ccXv777v.f:194: warning:
         CALL LECSUI(IMPAMO,RUBRIQ,LEN(RUBRIQ),ITYSUP,NBVAL,IRTYP,IVERS,
              1
/tmp/ccXv777v.f:737: (continued):
               CALL LECSUI(IMPAMO,RUBRIQ,LEN(RUBRIQ),ITYSUP,NBVAL,IRTYP,
                    2
Argument #7 of `lecsui' is one type at (2) but is some other type at (1) [info -f g77 M GLOBALS]
/tmp/ccXv777v.f:194: warning:
         CALL LECSUI(IMPAMO,RUBRIQ,LEN(RUBRIQ),ITYSUP,NBVAL,IRTYP,IVERS,
              1
/tmp/ccXv777v.f:754: (continued):
                CALL LECSUI(IMPAMO,RUBRIQ,LEN(RUBRIQ),ITYSUP,NBVAL,IRTYP,
                     2
Argument #7 of `lecsui' is one type at (2) but is some other type at (1) [info -f g77 M GLOBALS]
/tmp/ccXv777v.f:194: warning:
         CALL LECSUI(IMPAMO,RUBRIQ,LEN(RUBRIQ),ITYSUP,NBVAL,IRTYP,IVERS,
              1
/tmp/ccXv777v.f:760: (continued):
                CALL LECSUI(IMPAMO,RUBRIQ,LEN(RUBRIQ),ITYSUP,NBVAL,IRTYP,
                     2
Argument #7 of `lecsui' is one type at (2) but is some other type at (1) [info -f g77 M GLOBALS]
/tmp/ccXv777v.f:194: warning:
         CALL LECSUI(IMPAMO,RUBRIQ,LEN(RUBRIQ),ITYSUP,NBVAL,IRTYP,IVERS,
              1
/tmp/ccXv777v.f:769: (continued):
                CALL LECSUI(IMPAMO,RUBRIQ,LEN(RUBRIQ),ITYSUP,NBVAL,IRTYP,
                     2
Argument #7 of `lecsui' is one type at (2) but is some other type at (1) [info -f g77 M GLOBALS]
/tmp/ccXv777v.f:194: warning:
         CALL LECSUI(IMPAMO,RUBRIQ,LEN(RUBRIQ),ITYSUP,NBVAL,IRTYP,IVERS,
              1
/tmp/ccXv777v.f:778: (continued):
                CALL LECSUI(IMPAMO,RUBRIQ,LEN(RUBRIQ),ITYSUP,NBVAL,IRTYP,
                     2
Argument #7 of `lecsui' is one type at (2) but is some other type at (1) [info -f g77 M GLOBALS]
/tmp/ccXv777v.f:194: warning:
         CALL LECSUI(IMPAMO,RUBRIQ,LEN(RUBRIQ),ITYSUP,NBVAL,IRTYP,IVERS,
              1
/tmp/ccXv777v.f:794: (continued):
               CALL LECSUI(IMPAMO,RUBRIQ,LEN(RUBRIQ),ITYSUP,NBVAL,IRTYP,
                    2
Argument #7 of `lecsui' is one type at (2) but is some other type at (1) [info -f g77 M GLOBALS]
/tmp/ccXv777v.f:194: warning:
         CALL LECSUI(IMPAMO,RUBRIQ,LEN(RUBRIQ),ITYSUP,NBVAL,IRTYP,IVERS,
              1
/tmp/ccXv777v.f:799: (continued):
               CALL LECSUI(IMPAMO,RUBRIQ,LEN(RUBRIQ),ITYSUP,NBVAL,IRTYP,
                    2
Argument #7 of `lecsui' is one type at (2) but is some other type at (1) [info -f g77 M GLOBALS]
/tmp/ccXv777v.f:194: warning:
         CALL LECSUI(IMPAMO,RUBRIQ,LEN(RUBRIQ),ITYSUP,NBVAL,IRTYP,IVERS,
              1
/tmp/ccXv777v.f:804: (continued):
               CALL LECSUI(IMPAMO,RUBRIQ,LEN(RUBRIQ),ITYSUP,NBVAL,IRTYP,
                    2
Argument #7 of `lecsui' is one type at (2) but is some other type at (1) [info -f g77 M GLOBALS]
/tmp/ccXv777v.f:194: warning:
         CALL LECSUI(IMPAMO,RUBRIQ,LEN(RUBRIQ),ITYSUP,NBVAL,IRTYP,IVERS,
              1
/tmp/ccXv777v.f:809: (continued):
               CALL LECSUI(IMPAMO,RUBRIQ,LEN(RUBRIQ),ITYSUP,NBVAL,IRTYP,
                    2
Argument #7 of `lecsui' is one type at (2) but is some other type at (1) [info -f g77 M GLOBALS]
/tmp/ccXv777v.f:194: warning:
         CALL LECSUI(IMPAMO,RUBRIQ,LEN(RUBRIQ),ITYSUP,NBVAL,IRTYP,IVERS,
              1
/tmp/ccXv777v.f:824: (continued):
               CALL LECSUI(IMPAMO,RUBRIQ,LEN(RUBRIQ),ITYSUP,NBVAL,IRTYP,
                    2
Argument #7 of `lecsui' is one type at (2) but is some other type at (1) [info -f g77 M GLOBALS]
/tmp/ccXv777v.f:194: warning:
         CALL LECSUI(IMPAMO,RUBRIQ,LEN(RUBRIQ),ITYSUP,NBVAL,IRTYP,IVERS,
              1
/tmp/ccXv777v.f:829: (continued):
               CALL LECSUI(IMPAMO,RUBRIQ,LEN(RUBRIQ),ITYSUP,NBVAL,IRTYP,
                    2
Argument #7 of `lecsui' is one type at (2) but is some other type at (1) [info -f g77 M GLOBALS]
/tmp/ccXv777v.f:194: warning:
         CALL LECSUI(IMPAMO,RUBRIQ,LEN(RUBRIQ),ITYSUP,NBVAL,IRTYP,IVERS,
              1
/tmp/ccXv777v.f:859: (continued):
               CALL LECSUI(IMPAMO,RUBRIQ,LEN(RUBRIQ),ITYSUP,NBVAL,IRTYP,
                    2
Argument #7 of `lecsui' is one type at (2) but is some other type at (1) [info -f g77 M GLOBALS]
/tmp/ccXv777v.f:194: warning:
         CALL LECSUI(IMPAMO,RUBRIQ,LEN(RUBRIQ),ITYSUP,NBVAL,IRTYP,IVERS,
              1
/tmp/ccXv777v.f:864: (continued):
               CALL LECSUI(IMPAMO,RUBRIQ,LEN(RUBRIQ),ITYSUP,NBVAL,IRTYP,
                    2
Argument #7 of `lecsui' is one type at (2) but is some other type at (1) [info -f g77 M GLOBALS]
/tmp/ccXv777v.f:194: warning:
         CALL LECSUI(IMPAMO,RUBRIQ,LEN(RUBRIQ),ITYSUP,NBVAL,IRTYP,IVERS,
              1
/tmp/ccXv777v.f:884: (continued):
                CALL LECSUI(IMPAMO,RUBRIQ,LEN(RUBRIQ),ITYSUP,NBVAL,IRTYP,
                     2
Argument #7 of `lecsui' is one type at (2) but is some other type at (1) [info -f g77 M GLOBALS]
/tmp/ccXv777v.f:194: warning:
         CALL LECSUI(IMPAMO,RUBRIQ,LEN(RUBRIQ),ITYSUP,NBVAL,IRTYP,IVERS,
              1
/tmp/ccXv777v.f:890: (continued):
                CALL LECSUI(IMPAMO,RUBRIQ,LEN(RUBRIQ),ITYSUP,NBVAL,IRTYP,
                     2
Argument #7 of `lecsui' is one type at (2) but is some other type at (1) [info -f g77 M GLOBALS]
/tmp/ccXv777v.f:194: warning:
         CALL LECSUI(IMPAMO,RUBRIQ,LEN(RUBRIQ),ITYSUP,NBVAL,IRTYP,IVERS,
              1
/tmp/ccXv777v.f:899: (continued):
                CALL LECSUI(IMPAMO,RUBRIQ,LEN(RUBRIQ),ITYSUP,NBVAL,IRTYP,
                     2
Argument #7 of `lecsui' is one type at (2) but is some other type at (1) [info -f g77 M GLOBALS]
/tmp/ccXv777v.f:194: warning:
         CALL LECSUI(IMPAMO,RUBRIQ,LEN(RUBRIQ),ITYSUP,NBVAL,IRTYP,IVERS,
              1
/tmp/ccXv777v.f:908: (continued):
                CALL LECSUI(IMPAMO,RUBRIQ,LEN(RUBRIQ),ITYSUP,NBVAL,IRTYP,
                     2
Argument #7 of `lecsui' is one type at (2) but is some other type at (1) [info -f g77 M GLOBALS]
/tmp/ccXv777v.f:194: warning:
         CALL LECSUI(IMPAMO,RUBRIQ,LEN(RUBRIQ),ITYSUP,NBVAL,IRTYP,IVERS,
              1
/tmp/ccXv777v.f:928: (continued):
               CALL LECSUI(IMPAMO,RUBRIQ,LEN(RUBRIQ),ITYSUP,NBVAL,IRTYP,
                    2
Argument #7 of `lecsui' is one type at (2) but is some other type at (1) [info -f g77 M GLOBALS]
/tmp/ccXv777v.f:194: warning:
         CALL LECSUI(IMPAMO,RUBRIQ,LEN(RUBRIQ),ITYSUP,NBVAL,IRTYP,IVERS,
              1
/tmp/ccXv777v.f:933: (continued):
               CALL LECSUI(IMPAMO,RUBRIQ,LEN(RUBRIQ),ITYSUP,NBVAL,IRTYP,
                    2
Argument #7 of `lecsui' is one type at (2) but is some other type at (1) [info -f g77 M GLOBALS]
/tmp/ccXv777v.f:194: warning:
         CALL LECSUI(IMPAMO,RUBRIQ,LEN(RUBRIQ),ITYSUP,NBVAL,IRTYP,IVERS,
              1
/tmp/ccXv777v.f:974: (continued):
                 CALL LECSUI(IMPAMO,RUBRIQ,LEN(RUBRIQ),ITYSUP,NBVAL,IRTYP,
                      2
Argument #7 of `lecsui' is one type at (2) but is some other type at (1) [info -f g77 M GLOBALS]
/tmp/ccXv777v.f:194: warning:
         CALL LECSUI(IMPAMO,RUBRIQ,LEN(RUBRIQ),ITYSUP,NBVAL,IRTYP,IVERS,
              1
/tmp/ccXv777v.f:1014: (continued):
           CALL LECSUI(IMPAMO,RUBRIQ,LEN(RUBRIQ),ITYSUP,NBVAL,IRTYP,
                2
Argument #7 of `lecsui' is one type at (2) but is some other type at (1) [info -f g77 M GLOBALS]
/tmp/ccXv777v.f:194: warning:
         CALL LECSUI(IMPAMO,RUBRIQ,LEN(RUBRIQ),ITYSUP,NBVAL,IRTYP,IVERS,
              1
/tmp/ccXv777v.f:1019: (continued):
           CALL LECSUI(IMPAMO,RUBRIQ,LEN(RUBRIQ),ITYSUP,NBVAL,IRTYP,
                2
Argument #7 of `lecsui' is one type at (2) but is some other type at (1) [info -f g77 M GLOBALS]
/tmp/ccXv777v.f:194: warning:
         CALL LECSUI(IMPAMO,RUBRIQ,LEN(RUBRIQ),ITYSUP,NBVAL,IRTYP,IVERS,
              1
/tmp/ccXv777v.f:1024: (continued):
           CALL LECSUI(IMPAMO,RUBRIQ,LEN(RUBRIQ),ITYSUP,NBVAL,IRTYP,
                2
Argument #7 of `lecsui' is one type at (2) but is some other type at (1) [info -f g77 M GLOBALS]
lecamx.F
/usr/local/mpichgm-1.2.6.14b-64b/bin/mpif77 -D_CS_HAVE_XML     -fno-silent -I. -O1 -c lecamx.F
  lecamx:
lecamx.F: In subroutine `lecamx':
/tmp/ccO3IAG9.f:252: warning:
         CALL LECSUI(IMPAMX,RUBRIQ,LEN(RUBRIQ),ITYSUP,NBVAL,IRTYP,IVERS,
              1
/tmp/ccO3IAG9.f:375: (continued):
             CALL LECSUI(IMPAMX,RUBRIQ,LEN(RUBRIQ),ITYSUP,NBVAL,IRTYP,
                  2
Argument #7 of `lecsui' is one type at (2) but is some other type at (1) [info -f g77 M GLOBALS]
/tmp/ccO3IAG9.f:252: warning:
         CALL LECSUI(IMPAMX,RUBRIQ,LEN(RUBRIQ),ITYSUP,NBVAL,IRTYP,IVERS,
              1
/tmp/ccO3IAG9.f:399: (continued):
             CALL LECSUI(IMPAMX,RUBRIQ,LEN(RUBRIQ),ITYSUP,NBVAL,IRTYP,
                  2
Argument #7 of `lecsui' is one type at (2) but is some other type at (1) [info -f g77 M GLOBALS]
/tmp/ccO3IAG9.f:252: warning:
         CALL LECSUI(IMPAMX,RUBRIQ,LEN(RUBRIQ),ITYSUP,NBVAL,IRTYP,IVERS,
              1
/tmp/ccO3IAG9.f:410: (continued):
               CALL LECSUI(IMPAMX,RUBRIQ,LEN(RUBRIQ),ITYSUP,NBVAL,IRTYP,
                    2
Argument #7 of `lecsui' is one type at (2) but is some other type at (1) [info -f g77 M GLOBALS]
/tmp/ccO3IAG9.f:252: warning:
         CALL LECSUI(IMPAMX,RUBRIQ,LEN(RUBRIQ),ITYSUP,NBVAL,IRTYP,IVERS,
              1
/tmp/ccO3IAG9.f:444: (continued):
               CALL LECSUI(IMPAMX,RUBRIQ,LEN(RUBRIQ),ITYSUP,NBVAL,IRTYP,
                    2
Argument #7 of `lecsui' is one type at (2) but is some other type at (1) [info -f g77 M GLOBALS]
/tmp/ccO3IAG9.f:252: warning:
         CALL LECSUI(IMPAMX,RUBRIQ,LEN(RUBRIQ),ITYSUP,NBVAL,IRTYP,IVERS,
              1
/tmp/ccO3IAG9.f:455: (continued):
             CALL LECSUI(IMPAMX,RUBRIQ,LEN(RUBRIQ),ITYSUP,NBVAL,IRTYP,
                  2
Argument #7 of `lecsui' is one type at (2) but is some other type at (1) [info -f g77 M GLOBALS]
/tmp/ccO3IAG9.f:252: warning:
         CALL LECSUI(IMPAMX,RUBRIQ,LEN(RUBRIQ),ITYSUP,NBVAL,IRTYP,IVERS,
              1
/tmp/ccO3IAG9.f:487: (continued):
             CALL LECSUI(IMPAMX,RUBRIQ,LEN(RUBRIQ),ITYSUP,NBVAL,IRTYP,
                  2
Argument #7 of `lecsui' is one type at (2) but is some other type at (1) [info -f g77 M GLOBALS]
/tmp/ccO3IAG9.f:252: warning:
         CALL LECSUI(IMPAMX,RUBRIQ,LEN(RUBRIQ),ITYSUP,NBVAL,IRTYP,IVERS,
              1
/tmp/ccO3IAG9.f:525: (continued):
                 CALL LECSUI(IMPAMX,RUBRIQ,LEN(RUBRIQ),ITYSUP,NBVAL,IRTYP,
                      2
Argument #7 of `lecsui' is one type at (2) but is some other type at (1) [info -f g77 M GLOBALS]
/tmp/ccO3IAG9.f:252: warning:
         CALL LECSUI(IMPAMX,RUBRIQ,LEN(RUBRIQ),ITYSUP,NBVAL,IRTYP,IVERS,
              1
/tmp/ccO3IAG9.f:600: (continued):
           CALL LECSUI(IMPAMX,RUBRIQ,LEN(RUBRIQ),ITYSUP,NBVAL,IRTYP,DT(1),
                2
Argument #7 of `lecsui' is one type at (2) but is some other type at (1) [info -f g77 M GLOBALS]
/tmp/ccO3IAG9.f:252: warning:
         CALL LECSUI(IMPAMX,RUBRIQ,LEN(RUBRIQ),ITYSUP,NBVAL,IRTYP,IVERS,
[...]
lagout.F:868: (continued):
                 CALL ECRSUI(IMPVLS,RUBRIQ,LEN(RUBRIQ),ITYSUP,NBVAL,IRTYP,
                      2
Argument #7 of `ecrsui' is one type at (2) but is some other type at (1) [info -f g77 M GLOBALS]
lagphy.F
/usr/local/mpichgm-1.2.6.14b-64b/bin/mpif77 -D_CS_HAVE_XML     -fno-silent -I. -O1 -c lagphy.F
  lagphy:
lagpoi.F
/usr/local/mpichgm-1.2.6.14b-64b/bin/mpif77 -D_CS_HAVE_XML     -fno-silent -I. -O1 -c lagpoi.F
  lagpoi:
lagraf.F
/usr/local/mpichgm-1.2.6.14b-64b/bin/mpif77 -D_CS_HAVE_XML     -fno-silent -I. -O1 -c lagraf.F
  lagraf:
lagrus.F
/usr/local/mpichgm-1.2.6.14b-64b/bin/mpif77 -D_CS_HAVE_XML     -fno-silent -I. -O1 -c lagrus.F
  lagrus:
lagsta.F
/usr/local/mpichgm-1.2.6.14b-64b/bin/mpif77 -D_CS_HAVE_XML     -fno-silent -I. -O1 -c lagsta.F
  lagsta:
lagstf.F
/usr/local/mpichgm-1.2.6.14b-64b/bin/mpif77 -D_CS_HAVE_XML     -fno-silent -I. -O1 -c lagstf.F
  lagstf:
lagtri.F
/usr/local/mpichgm-1.2.6.14b-64b/bin/mpif77 -D_CS_HAVE_XML     -fno-silent -I. -O1 -c lagtri.F
  lagtri:
lagune.F
/usr/local/mpichgm-1.2.6.14b-64b/bin/mpif77 -D_CS_HAVE_XML     -fno-silent -I. -O1 -c lagune.F
  lagune:
memla1.F
/usr/local/mpichgm-1.2.6.14b-64b/bin/mpif77 -D_CS_HAVE_XML     -fno-silent -I. -O1 -c memla1.F
  memla1:
memla2.F
/usr/local/mpichgm-1.2.6.14b-64b/bin/mpif77 -D_CS_HAVE_XML     -fno-silent -I. -O1 -c memla2.F
  memla2:
ouestu.F
/usr/local/mpichgm-1.2.6.14b-64b/bin/mpif77 -D_CS_HAVE_XML     -fno-silent -I. -O1 -c ouestu.F
  ouestu:
uslabo.F
/usr/local/mpichgm-1.2.6.14b-64b/bin/mpif77 -D_CS_HAVE_XML     -fno-silent -I. -O1 -c uslabo.F
  uslabo:
uslaed.F
/usr/local/mpichgm-1.2.6.14b-64b/bin/mpif77 -D_CS_HAVE_XML     -fno-silent -I. -O1 -c uslaed.F
  uslaed:
uslaen.F
/usr/local/mpichgm-1.2.6.14b-64b/bin/mpif77 -D_CS_HAVE_XML     -fno-silent -I. -O1 -c uslaen.F
  uslaen:
uslag1.F
/usr/local/mpichgm-1.2.6.14b-64b/bin/mpif77 -D_CS_HAVE_XML     -fno-silent -I. -O1 -c uslag1.F
  uslag1:
uslag2.F
/usr/local/mpichgm-1.2.6.14b-64b/bin/mpif77 -D_CS_HAVE_XML     -fno-silent -I. -O1 -c uslag2.F
  uslag2:
uslain.F
/usr/local/mpichgm-1.2.6.14b-64b/bin/mpif77 -D_CS_HAVE_XML     -fno-silent -I. -O1 -c uslain.F
  uslain:
uslaru.F
/usr/local/mpichgm-1.2.6.14b-64b/bin/mpif77 -D_CS_HAVE_XML     -fno-silent -I. -O1 -c uslaru.F
  uslaru:
uslast.F
/usr/local/mpichgm-1.2.6.14b-64b/bin/mpif77 -D_CS_HAVE_XML     -fno-silent -I. -O1 -c uslast.F
  uslast:
uslatc.F
/usr/local/mpichgm-1.2.6.14b-64b/bin/mpif77 -D_CS_HAVE_XML     -fno-silent -I. -O1 -c uslatc.F
  uslatc:
uslatp.F
/usr/local/mpichgm-1.2.6.14b-64b/bin/mpif77 -D_CS_HAVE_XML     -fno-silent -I. -O1 -c uslatp.F
  uslatp:
make[2]: Leaving directory `/home/saturne/Noyau/ncs-1.3.d/build/Linux_Ch/LAGR'
***  Compilation terminée

make[1]: Leaving directory `/home/saturne/Noyau/ncs-1.3.d/build/Linux_Ch/LAGR'
make[1]: Entering directory `/home/saturne/Noyau/ncs-1.3.d/build/Linux_Ch/LAGR'
***  Création de la librairie
***  Création de la librairie terminée

make[1]: Leaving directory `/home/saturne/Noyau/ncs-1.3.d/build/Linux_Ch/LAGR'
make[1]: Entering directory `/home/saturne/Noyau/ncs-1.3.d/build/Linux_Ch/LAGR'
***  Installation de la librairie
***  Installation de la librairie terminée

make[1]: Leaving directory `/home/saturne/Noyau/ncs-1.3.d/build/Linux_Ch/LAGR'
make[1]: Entering directory `/home/saturne/Noyau/ncs-1.3.d/build/Linux_Ch/LAGR'

make[1]: Leaving directory `/home/saturne/Noyau/ncs-1.3.d/build/Linux_Ch/LAGR'
   Generation du fichier resume
/home/saturne/Noyau/ncs-1.3.d/build/Linux_Ch/LAGR/.readmeLAGR
   Nettoyage avec MOD=LAGR OPT=
make[1]: Entering directory `/home/saturne/Noyau/ncs-1.3.d/build/Linux_Ch/LAGR'
***  "make" dans un répertoire de génération de la librairie
make[2]: Entering directory `/home/saturne/Noyau/ncs-1.3.d/build/Linux_Ch/LAGR'
make[2]: Leaving directory `/home/saturne/Noyau/ncs-1.3.d/build/Linux_Ch/LAGR'
make[1]: Leaving directory `/home/saturne/Noyau/ncs-1.3.d/build/Linux_Ch/LAGR'
[7m *** Fin de la construction de LAGR
[27m[m(B[!p[?3;4l[4l>[!p[?3;4l[4l>[7m
 *** Construction de RAYT sous Linux_Ch
[27m[m(B[!p[?3;4l[4l>[!p[?3;4l[4l>   Generation du repertoire RAYT
   Lien sur le Makefile
   Lancement de make avec MOD=RAYT OPT=
make[1]: Entering directory `/home/saturne/Noyau/ncs-1.3.d/build/Linux_Ch/RAYT'

***  Compilation/lien Code_Saturne  version 1.3.d
***  Système Linux_Ch

make[1]: Leaving directory `/home/saturne/Noyau/ncs-1.3.d/build/Linux_Ch/RAYT'
make[1]: Entering directory `/home/saturne/Noyau/ncs-1.3.d/build/Linux_Ch/RAYT'
***  "make" dans un répertoire de génération de la librairie
make[2]: Entering directory `/home/saturne/Noyau/ncs-1.3.d/build/Linux_Ch/RAYT'
make[2]: Leaving directory `/home/saturne/Noyau/ncs-1.3.d/build/Linux_Ch/RAYT'
make[1]: Leaving directory `/home/saturne/Noyau/ncs-1.3.d/build/Linux_Ch/RAYT'
make[1]: Entering directory `/home/saturne/Noyau/ncs-1.3.d/build/Linux_Ch/RAYT'
make[2]: Entering directory `/home/saturne/Noyau/ncs-1.3.d/build/Linux_Ch/RAYT'
make[2]: Leaving directory `/home/saturne/Noyau/ncs-1.3.d/build/Linux_Ch/RAYT'
make[2]: Entering directory `/home/saturne/Noyau/ncs-1.3.d/build/Linux_Ch/RAYT'
make[2]: Leaving directory `/home/saturne/Noyau/ncs-1.3.d/build/Linux_Ch/RAYT'
***  Compilation
make[2]: Entering directory `/home/saturne/Noyau/ncs-1.3.d/build/Linux_Ch/RAYT'
make[2]: Leaving directory `/home/saturne/Noyau/ncs-1.3.d/build/Linux_Ch/RAYT'
make[2]: Entering directory `/home/saturne/Noyau/ncs-1.3.d/build/Linux_Ch/RAYT'
make[2]: Nothing to be done for `privdependobj'.
make[2]: Leaving directory `/home/saturne/Noyau/ncs-1.3.d/build/Linux_Ch/RAYT'
make[2]: Entering directory `/home/saturne/Noyau/ncs-1.3.d/build/Linux_Ch/RAYT'
make[2]: Leaving directory `/home/saturne/Noyau/ncs-1.3.d/build/Linux_Ch/RAYT'
make[2]: Entering directory `/home/saturne/Noyau/ncs-1.3.d/build/Linux_Ch/RAYT'
make[2]: Nothing to be done for `privdependobj'.
make[2]: Leaving directory `/home/saturne/Noyau/ncs-1.3.d/build/Linux_Ch/RAYT'
make[2]: Entering directory `/home/saturne/Noyau/ncs-1.3.d/build/Linux_Ch/RAYT'
make[2]: Leaving directory `/home/saturne/Noyau/ncs-1.3.d/build/Linux_Ch/RAYT'
make[2]: Entering directory `/home/saturne/Noyau/ncs-1.3.d/build/Linux_Ch/RAYT'
make[2]: Nothing to be done for `privdependobj'.
make[2]: Leaving directory `/home/saturne/Noyau/ncs-1.3.d/build/Linux_Ch/RAYT'
make[2]: Entering directory `/home/saturne/Noyau/ncs-1.3.d/build/Linux_Ch/RAYT'
memra1.F
/usr/local/mpichgm-1.2.6.14b-64b/bin/mpif77 -D_CS_HAVE_XML     -fno-silent -I. -O1 -c memra1.F
  memra1:
memra2.F
/usr/local/mpichgm-1.2.6.14b-64b/bin/mpif77 -D_CS_HAVE_XML     -fno-silent -I. -O1 -c memra2.F
  memra2:
memra3.F
/usr/local/mpichgm-1.2.6.14b-64b/bin/mpif77 -D_CS_HAVE_XML     -fno-silent -I. -O1 -c memra3.F
  memra3:
raybrd.F
/usr/local/mpichgm-1.2.6.14b-64b/bin/mpif77 -D_CS_HAVE_XML     -fno-silent -I. -O1 -c raybrd.F
  raybrd:
raycli.F
/usr/local/mpichgm-1.2.6.14b-64b/bin/mpif77 -D_CS_HAVE_XML     -fno-silent -I. -O1 -c raycli.F
  raycli:
raydak.F
/usr/local/mpichgm-1.2.6.14b-64b/bin/mpif77 -D_CS_HAVE_XML     -fno-silent -I. -O1 -c raydak.F
  raydak:
raydir.F
/usr/local/mpichgm-1.2.6.14b-64b/bin/mpif77 -D_CS_HAVE_XML     -fno-silent -I. -O1 -c raydir.F
  raydir:
raydom.F
/usr/local/mpichgm-1.2.6.14b-64b/bin/mpif77 -D_CS_HAVE_XML     -fno-silent -I. -O1 -c raydom.F
  raydom:
rayens.F
/usr/local/mpichgm-1.2.6.14b-64b/bin/mpif77 -D_CS_HAVE_XML     -fno-silent -I. -O1 -c rayens.F
  rayens:
raylec.F
/usr/local/mpichgm-1.2.6.14b-64b/bin/mpif77 -D_CS_HAVE_XML     -fno-silent -I. -O1 -c raylec.F
  raylec:
raylec.F: In subroutine `raylec':
raylec.F:205: warning:
             CALL LECSUI(IMPAMR,RUBRIQ,LEN(RUBRIQ),ITYSUP,NBVAL,IRTYP,
                  1
raylec.F:266: (continued):
               CALL LECSUI(IMPAMR,RUBRIQ,LEN(RUBRIQ),ITYSUP,NBVAL,IRTYP,
                    2
Argument #7 of `lecsui' is one type at (2) but is some other type at (1) [info -f g77 M GLOBALS]
raylec.F:205: warning:
             CALL LECSUI(IMPAMR,RUBRIQ,LEN(RUBRIQ),ITYSUP,NBVAL,IRTYP,
                  1
raylec.F:271: (continued):
               CALL LECSUI(IMPAMR,RUBRIQ,LEN(RUBRIQ),ITYSUP,NBVAL,IRTYP,
                    2
Argument #7 of `lecsui' is one type at (2) but is some other type at (1) [info -f g77 M GLOBALS]
raylec.F:205: warning:
             CALL LECSUI(IMPAMR,RUBRIQ,LEN(RUBRIQ),ITYSUP,NBVAL,IRTYP,
                  1
raylec.F:276: (continued):
               CALL LECSUI(IMPAMR,RUBRIQ,LEN(RUBRIQ),ITYSUP,NBVAL,IRTYP,
                    2
Argument #7 of `lecsui' is one type at (2) but is some other type at (1) [info -f g77 M GLOBALS]
raylec.F:205: warning:
             CALL LECSUI(IMPAMR,RUBRIQ,LEN(RUBRIQ),ITYSUP,NBVAL,IRTYP,
                  1
raylec.F:281: (continued):
               CALL LECSUI(IMPAMR,RUBRIQ,LEN(RUBRIQ),ITYSUP,NBVAL,IRTYP,
                    2
Argument #7 of `lecsui' is one type at (2) but is some other type at (1) [info -f g77 M GLOBALS]
raylec.F:205: warning:
             CALL LECSUI(IMPAMR,RUBRIQ,LEN(RUBRIQ),ITYSUP,NBVAL,IRTYP,
                  1
raylec.F:293: (continued):
               CALL LECSUI(IMPAMR,RUBRIQ,LEN(RUBRIQ),ITYSUP,NBVAL,IRTYP,
                    2
Argument #7 of `lecsui' is one type at (2) but is some other type at (1) [info -f g77 M GLOBALS]
raylec.F:205: warning:
             CALL LECSUI(IMPAMR,RUBRIQ,LEN(RUBRIQ),ITYSUP,NBVAL,IRTYP,
                  1
raylec.F:298: (continued):
               CALL LECSUI(IMPAMR,RUBRIQ,LEN(RUBRIQ),ITYSUP,NBVAL,IRTYP,
                    2
Argument #7 of `lecsui' is one type at (2) but is some other type at (1) [info -f g77 M GLOBALS]
rayopt.F
/usr/local/mpichgm-1.2.6.14b-64b/bin/mpif77 -D_CS_HAVE_XML     -fno-silent -I. -O1 -c rayopt.F
  rayopt:
rayout.F
/usr/local/mpichgm-1.2.6.14b-64b/bin/mpif77 -D_CS_HAVE_XML     -fno-silent -I. -O1 -c rayout.F
  rayout:
rayout.F: In subroutine `rayout':
rayout.F:307: warning:
         CALL ECRSUI(IMPAVR,RUBRIQ,LEN(RUBRIQ),ITYSUP,NBVAL,IRTYP,IVERS,
              1
rayout.F:343: (continued):
         CALL ECRSUI(IMPAVR,RUBRIQ,LEN(RUBRIQ),ITYSUP,NBVAL,IRTYP,TTCABS,
              2
Argument #7 of `ecrsui' is one type at (2) but is some other type at (1) [info -f g77 M GLOBALS]
rayout.F:307: warning:
         CALL ECRSUI(IMPAVR,RUBRIQ,LEN(RUBRIQ),ITYSUP,NBVAL,IRTYP,IVERS,
              1
rayout.F:364: (continued):
           CALL ECRSUI(IMPAVR,RUBRIQ,LEN(RUBRIQ),ITYSUP,NBVAL,IRTYP,
                2
Argument #7 of `ecrsui' is one type at (2) but is some other type at (1) [info -f g77 M GLOBALS]
rayout.F:307: warning:
         CALL ECRSUI(IMPAVR,RUBRIQ,LEN(RUBRIQ),ITYSUP,NBVAL,IRTYP,IVERS,
              1
rayout.F:369: (continued):
           CALL ECRSUI(IMPAVR,RUBRIQ,LEN(RUBRIQ),ITYSUP,NBVAL,IRTYP,
                2
Argument #7 of `ecrsui' is one type at (2) but is some other type at (1) [info -f g77 M GLOBALS]
rayout.F:307: warning:
         CALL ECRSUI(IMPAVR,RUBRIQ,LEN(RUBRIQ),ITYSUP,NBVAL,IRTYP,IVERS,
              1
rayout.F:374: (continued):
           CALL ECRSUI(IMPAVR,RUBRIQ,LEN(RUBRIQ),ITYSUP,NBVAL,IRTYP,
                2
Argument #7 of `ecrsui' is one type at (2) but is some other type at (1) [info -f g77 M GLOBALS]
rayout.F:307: warning:
         CALL ECRSUI(IMPAVR,RUBRIQ,LEN(RUBRIQ),ITYSUP,NBVAL,IRTYP,IVERS,
              1
rayout.F:379: (continued):
           CALL ECRSUI(IMPAVR,RUBRIQ,LEN(RUBRIQ),ITYSUP,NBVAL,IRTYP,
                2
Argument #7 of `ecrsui' is one type at (2) but is some other type at (1) [info -f g77 M GLOBALS]
rayout.F:307: warning:
         CALL ECRSUI(IMPAVR,RUBRIQ,LEN(RUBRIQ),ITYSUP,NBVAL,IRTYP,IVERS,
              1
rayout.F:391: (continued):
           CALL ECRSUI(IMPAVR,RUBRIQ,LEN(RUBRIQ),ITYSUP,NBVAL,IRTYP,
                2
Argument #7 of `ecrsui' is one type at (2) but is some other type at (1) [info -f g77 M GLOBALS]
rayout.F:307: warning:
         CALL ECRSUI(IMPAVR,RUBRIQ,LEN(RUBRIQ),ITYSUP,NBVAL,IRTYP,IVERS,
              1
rayout.F:396: (continued):
           CALL ECRSUI(IMPAVR,RUBRIQ,LEN(RUBRIQ),ITYSUP,NBVAL,IRTYP,
                2
Argument #7 of `ecrsui' is one type at (2) but is some other type at (1) [info -f g77 M GLOBALS]
raypar.F
/usr/local/mpichgm-1.2.6.14b-64b/bin/mpif77 -D_CS_HAVE_XML     -fno-silent -I. -O1 -c raypar.F
  raypar:
raypun.F
/usr/local/mpichgm-1.2.6.14b-64b/bin/mpif77 -D_CS_HAVE_XML     -fno-silent -I. -O1 -c raypun.F
  raypun:
raysca.F
/usr/local/mpichgm-1.2.6.14b-64b/bin/mpif77 -D_CS_HAVE_XML     -fno-silent -I. -O1 -c raysca.F
  raysca:
raysol.F
/usr/local/mpichgm-1.2.6.14b-64b/bin/mpif77 -D_CS_HAVE_XML     -fno-silent -I. -O1 -c raysol.F
  raysol:
rmodak.F
/usr/local/mpichgm-1.2.6.14b-64b/bin/mpif77 -D_CS_HAVE_XML     -fno-silent -I. -O1 -c rmodak.F
  absorb:
  chebyc:
  asympt:
  tasoot:
  pentag:
  fdleck:
  emigas:
  scrtch:
usray1.F
/usr/local/mpichgm-1.2.6.14b-64b/bin/mpif77 -D_CS_HAVE_XML     -fno-silent -I. -O1 -c usray1.F
  usray1:
usray2.F
/usr/local/mpichgm-1.2.6.14b-64b/bin/mpif77 -D_CS_HAVE_XML     -fno-silent -I. -O1 -c usray2.F
  usray2:
usray3.F
/usr/local/mpichgm-1.2.6.14b-64b/bin/mpif77 -D_CS_HAVE_XML     -fno-silent -I. -O1 -c usray3.F
  usray3:
usray4.F
/usr/local/mpichgm-1.2.6.14b-64b/bin/mpif77 -D_CS_HAVE_XML     -fno-silent -I. -O1 -c usray4.F
  usray4:
make[2]: Leaving directory `/home/saturne/Noyau/ncs-1.3.d/build/Linux_Ch/RAYT'
***  Compilation terminée

make[1]: Leaving directory `/home/saturne/Noyau/ncs-1.3.d/build/Linux_Ch/RAYT'
make[1]: Entering directory `/home/saturne/Noyau/ncs-1.3.d/build/Linux_Ch/RAYT'
***  Création de la librairie
***  Création de la librairie terminée

make[1]: Leaving directory `/home/saturne/Noyau/ncs-1.3.d/build/Linux_Ch/RAYT'
make[1]: Entering directory `/home/saturne/Noyau/ncs-1.3.d/build/Linux_Ch/RAYT'
***  Installation de la librairie
***  Installation de la librairie terminée

make[1]: Leaving directory `/home/saturne/Noyau/ncs-1.3.d/build/Linux_Ch/RAYT'
make[1]: Entering directory `/home/saturne/Noyau/ncs-1.3.d/build/Linux_Ch/RAYT'

make[1]: Leaving directory `/home/saturne/Noyau/ncs-1.3.d/build/Linux_Ch/RAYT'
   Generation du fichier resume
/home/saturne/Noyau/ncs-1.3.d/build/Linux_Ch/RAYT/.readmeRAYT
   Nettoyage avec MOD=RAYT OPT=
make[1]: Entering directory `/home/saturne/Noyau/ncs-1.3.d/build/Linux_Ch/RAYT'
***  "make" dans un répertoire de génération de la librairie
make[2]: Entering directory `/home/saturne/Noyau/ncs-1.3.d/build/Linux_Ch/RAYT'
make[2]: Leaving directory `/home/saturne/Noyau/ncs-1.3.d/build/Linux_Ch/RAYT'
make[1]: Leaving directory `/home/saturne/Noyau/ncs-1.3.d/build/Linux_Ch/RAYT'
[7m *** Fin de la construction de RAYT
[27m[m(B[!p[?3;4l[4l>[!p[?3;4l[4l>[7m
 *** Construction de MATI sous Linux_Ch
[27m[m(B[!p[?3;4l[4l>[!p[?3;4l[4l>   Generation du repertoire MATI
   Lien sur le Makefile
   Lancement de make avec MOD=MATI OPT=
make[1]: Entering directory `/home/saturne/Noyau/ncs-1.3.d/build/Linux_Ch/MATI'

***  Compilation/lien Code_Saturne  version 1.3.d
***  Système Linux_Ch

make[1]: Leaving directory `/home/saturne/Noyau/ncs-1.3.d/build/Linux_Ch/MATI'
make[1]: Entering directory `/home/saturne/Noyau/ncs-1.3.d/build/Linux_Ch/MATI'
***  "make" dans un répertoire de génération de la librairie
make[2]: Entering directory `/home/saturne/Noyau/ncs-1.3.d/build/Linux_Ch/MATI'
make[2]: Leaving directory `/home/saturne/Noyau/ncs-1.3.d/build/Linux_Ch/MATI'
make[1]: Leaving directory `/home/saturne/Noyau/ncs-1.3.d/build/Linux_Ch/MATI'
make[1]: Entering directory `/home/saturne/Noyau/ncs-1.3.d/build/Linux_Ch/MATI'
make[2]: Entering directory `/home/saturne/Noyau/ncs-1.3.d/build/Linux_Ch/MATI'
make[2]: Leaving directory `/home/saturne/Noyau/ncs-1.3.d/build/Linux_Ch/MATI'
make[2]: Entering directory `/home/saturne/Noyau/ncs-1.3.d/build/Linux_Ch/MATI'
make[2]: Leaving directory `/home/saturne/Noyau/ncs-1.3.d/build/Linux_Ch/MATI'
***  Compilation
make[2]: Entering directory `/home/saturne/Noyau/ncs-1.3.d/build/Linux_Ch/MATI'
make[2]: Leaving directory `/home/saturne/Noyau/ncs-1.3.d/build/Linux_Ch/MATI'
make[2]: Entering directory `/home/saturne/Noyau/ncs-1.3.d/build/Linux_Ch/MATI'
make[2]: Nothing to be done for `privdependobj'.
make[2]: Leaving directory `/home/saturne/Noyau/ncs-1.3.d/build/Linux_Ch/MATI'
make[2]: Entering directory `/home/saturne/Noyau/ncs-1.3.d/build/Linux_Ch/MATI'
make[2]: Leaving directory `/home/saturne/Noyau/ncs-1.3.d/build/Linux_Ch/MATI'
make[2]: Entering directory `/home/saturne/Noyau/ncs-1.3.d/build/Linux_Ch/MATI'
make[2]: Nothing to be done for `privdependobj'.
make[2]: Leaving directory `/home/saturne/Noyau/ncs-1.3.d/build/Linux_Ch/MATI'
make[2]: Entering directory `/home/saturne/Noyau/ncs-1.3.d/build/Linux_Ch/MATI'
make[2]: Leaving directory `/home/saturne/Noyau/ncs-1.3.d/build/Linux_Ch/MATI'
make[2]: Entering directory `/home/saturne/Noyau/ncs-1.3.d/build/Linux_Ch/MATI'
make[2]: Nothing to be done for `privdependobj'.
make[2]: Leaving directory `/home/saturne/Noyau/ncs-1.3.d/build/Linux_Ch/MATI'
make[2]: Entering directory `/home/saturne/Noyau/ncs-1.3.d/build/Linux_Ch/MATI'
memmat.F
/usr/local/mpichgm-1.2.6.14b-64b/bin/mpif77 -D_CS_HAVE_XML     -fno-silent -I. -O1 -c memmat.F
  memmat:
mtimpi.F
/usr/local/mpichgm-1.2.6.14b-64b/bin/mpif77 -D_CS_HAVE_XML     -fno-silent -I. -O1 -c mtimpi.F
  mtimpi:
mtini1.F
/usr/local/mpichgm-1.2.6.14b-64b/bin/mpif77 -D_CS_HAVE_XML     -fno-silent -I. -O1 -c mtini1.F
  mtini1:
mtkpdc.F
/usr/local/mpichgm-1.2.6.14b-64b/bin/mpif77 -D_CS_HAVE_XML     -fno-silent -I. -O1 -c mtkpdc.F
  mtkpdc:
mtphyv.F
/usr/local/mpichgm-1.2.6.14b-64b/bin/mpif77 -D_CS_HAVE_XML     -fno-silent -I. -O1 -c mtphyv.F
  mtphyv:
mtproj.F
/usr/local/mpichgm-1.2.6.14b-64b/bin/mpif77 -D_CS_HAVE_XML     -fno-silent -I. -O1 -c mtproj.F
  mtproj:
mttsns.F
/usr/local/mpichgm-1.2.6.14b-64b/bin/mpif77 -D_CS_HAVE_XML     -fno-silent -I. -O1 -c mttsns.F
  mttsns:
mttssc.F
/usr/local/mpichgm-1.2.6.14b-64b/bin/mpif77 -D_CS_HAVE_XML     -fno-silent -I. -O1 -c mttssc.F
  mttssc:
mttycl.F
/usr/local/mpichgm-1.2.6.14b-64b/bin/mpif77 -D_CS_HAVE_XML     -fno-silent -I. -O1 -c mttycl.F
  mttycl:
make[2]: Leaving directory `/home/saturne/Noyau/ncs-1.3.d/build/Linux_Ch/MATI'
***  Compilation terminée

make[1]: Leaving directory `/home/saturne/Noyau/ncs-1.3.d/build/Linux_Ch/MATI'
make[1]: Entering directory `/home/saturne/Noyau/ncs-1.3.d/build/Linux_Ch/MATI'
***  Création de la librairie
***  Création de la librairie terminée

make[1]: Leaving directory `/home/saturne/Noyau/ncs-1.3.d/build/Linux_Ch/MATI'
make[1]: Entering directory `/home/saturne/Noyau/ncs-1.3.d/build/Linux_Ch/MATI'
***  Installation de la librairie
***  Installation de la librairie terminée

make[1]: Leaving directory `/home/saturne/Noyau/ncs-1.3.d/build/Linux_Ch/MATI'
make[1]: Entering directory `/home/saturne/Noyau/ncs-1.3.d/build/Linux_Ch/MATI'

make[1]: Leaving directory `/home/saturne/Noyau/ncs-1.3.d/build/Linux_Ch/MATI'
   Generation du fichier resume
/home/saturne/Noyau/ncs-1.3.d/build/Linux_Ch/MATI/.readmeMATI
   Nettoyage avec MOD=MATI OPT=
make[1]: Entering directory `/home/saturne/Noyau/ncs-1.3.d/build/Linux_Ch/MATI'
***  "make" dans un répertoire de génération de la librairie
make[2]: Entering directory `/home/saturne/Noyau/ncs-1.3.d/build/Linux_Ch/MATI'
make[2]: Leaving directory `/home/saturne/Noyau/ncs-1.3.d/build/Linux_Ch/MATI'
make[1]: Leaving directory `/home/saturne/Noyau/ncs-1.3.d/build/Linux_Ch/MATI'
[7m *** Fin de la construction de MATI
[27m[m(B[!p[?3;4l[4l>[!p[?3;4l[4l>[7m
 *** Verification des acces
[27m[m(B[!p[?3;4l[4l>[!p[?3;4l[4l>chmod: cannot access `bin/compil_stat.exe': No such file or directory
chmod: cannot access `Synchronisation': No such file or directory
chmod: cannot access `Outils_peripheriques': No such file or directory
[7m *** Fin de la verification des acces
[27m[m(B[!p[?3;4l[4l>[!p[?3;4l[4l>[1m    Fin de l'installation des bibliotheques BASE CFBL COGZ CPLV ELEC LAGR RAYT MATI
    Version de Code_Saturne /home/saturne/Noyau/ncs-1.3.d

[27m[m(B[!p[?3;4l[4l>[!p[?3;4l[4l>