[1m
    Installation des bibliotheques BASE CFBL COGZ CPLV ELEC LAGR RAYT MATI sous Linux_CCRT
    Version de Code_Saturne /home/saturne/Saturne/Noyau/ncs-1.3.d
       ==================================================================  
[27m[m(B[!p[?3;4l[4l>[!p[?3;4l[4l>[7m
 *** Repertoire de base CS_HOME = /home/saturne/Saturne/Noyau/ncs-1.3.d
[27m[m(B[!p[?3;4l[4l>[!p[?3;4l[4l>[7m
 *** Protection prealable
[27m[m(B[!p[?3;4l[4l>[!p[?3;4l[4l>[7m
 *** Construction de BASE sous Linux_CCRT
[27m[m(B[!p[?3;4l[4l>[!p[?3;4l[4l>   Generation du repertoire BASE
   Lien sur le Makefile
   Lancement de make avec MOD=BASE OPT=
make[1]: Entering directory `/home/saturne/Saturne/Noyau/ncs-1.3.d/build/Linux_CCRT/BASE'

***  Compilation/lien Code_Saturne  version 1.3.d
***  Système Linux_CCRT

make[1]: Leaving directory `/home/saturne/Saturne/Noyau/ncs-1.3.d/build/Linux_CCRT/BASE'
make[1]: Entering directory `/home/saturne/Saturne/Noyau/ncs-1.3.d/build/Linux_CCRT/BASE'
***  "make" dans un répertoire de génération de la librairie
make[2]: Entering directory `/home/saturne/Saturne/Noyau/ncs-1.3.d/build/Linux_CCRT/BASE'
make[2]: Leaving directory `/home/saturne/Saturne/Noyau/ncs-1.3.d/build/Linux_CCRT/BASE'
make[1]: Leaving directory `/home/saturne/Saturne/Noyau/ncs-1.3.d/build/Linux_CCRT/BASE'
make[1]: Entering directory `/home/saturne/Saturne/Noyau/ncs-1.3.d/build/Linux_CCRT/BASE'
make[2]: Entering directory `/home/saturne/Saturne/Noyau/ncs-1.3.d/build/Linux_CCRT/BASE'
make[2]: Leaving directory `/home/saturne/Saturne/Noyau/ncs-1.3.d/build/Linux_CCRT/BASE'
make[2]: Entering directory `/home/saturne/Saturne/Noyau/ncs-1.3.d/build/Linux_CCRT/BASE'
make[2]: Leaving directory `/home/saturne/Saturne/Noyau/ncs-1.3.d/build/Linux_CCRT/BASE'
***  Compilation
make[2]: Entering directory `/home/saturne/Saturne/Noyau/ncs-1.3.d/build/Linux_CCRT/BASE'
make[2]: Leaving directory `/home/saturne/Saturne/Noyau/ncs-1.3.d/build/Linux_CCRT/BASE'
make[2]: Entering directory `/home/saturne/Saturne/Noyau/ncs-1.3.d/build/Linux_CCRT/BASE'
gradco.F
mpif77 -D_CS_HAVE_XML     -Ktrap=fp -fastsse -O -Mnobounds -c gradco.F
gradrc.F
mpif77 -D_CS_HAVE_XML     -Ktrap=fp -fastsse -O -Mnobounds -c gradrc.F
jacobi.F
mpif77 -D_CS_HAVE_XML     -Ktrap=fp -fastsse -O -Mnobounds -c jacobi.F
prcpol.F
mpif77 -D_CS_HAVE_XML     -Ktrap=fp -fastsse -O -Mnobounds -c prcpol.F
promav.F
mpif77 -D_CS_HAVE_XML     -Ktrap=fp -fastsse -O -Mnobounds -c promav.F
make[2]: Leaving directory `/home/saturne/Saturne/Noyau/ncs-1.3.d/build/Linux_CCRT/BASE'
make[2]: Entering directory `/home/saturne/Saturne/Noyau/ncs-1.3.d/build/Linux_CCRT/BASE'
make[2]: Leaving directory `/home/saturne/Saturne/Noyau/ncs-1.3.d/build/Linux_CCRT/BASE'
make[2]: Entering directory `/home/saturne/Saturne/Noyau/ncs-1.3.d/build/Linux_CCRT/BASE'
prodsc.F
mpif77 -D_CS_HAVE_XML     -Ktrap=fp -fastsse -O -Mnobounds -c prodsc.F
prods2.F
mpif77 -D_CS_HAVE_XML     -Ktrap=fp -fastsse -O -Mnobounds -c prods2.F
prods3.F
mpif77 -D_CS_HAVE_XML     -Ktrap=fp -fastsse -O -Mnobounds -c prods3.F
make[2]: Leaving directory `/home/saturne/Saturne/Noyau/ncs-1.3.d/build/Linux_CCRT/BASE'
make[2]: Entering directory `/home/saturne/Saturne/Noyau/ncs-1.3.d/build/Linux_CCRT/BASE'
cs_ale.c
mpicc   -I/home/saturne/Saturne/opt/bft-1.0.2/arch/Linux/include -I/home/saturne/Saturne/opt/fvm-0.6.1/arch/Linux/include   -I/home/saturne/Saturne/opt/libxml2-2.6.19/include/libxml2 -D_POSIX_SOURCE -D_CS_HAVE_MPI  -D_CS_HAVE_SOCKET  -D_CS_HAVE_XML     -DNDEBUG  -Xa -Ktrap=fp   -O1  -c cs_ale.c
PGC-W-0153-Struct or union _IO_2_1_stderr_ has incomplete type (cs_ale.c: 338)
PGC-W-0153-Struct or union _IO_2_1_stdout_ has incomplete type (cs_ale.c: 337)
PGC-W-0153-Struct or union _IO_2_1_stdin_ has incomplete type (cs_ale.c: 336)
PGC/x86-64 Linux/x86-64 6.2-5: compilation completed with warnings
cs_base.c
mpicc   -I/home/saturne/Saturne/opt/bft-1.0.2/arch/Linux/include -I/home/saturne/Saturne/opt/fvm-0.6.1/arch/Linux/include   -I/home/saturne/Saturne/opt/libxml2-2.6.19/include/libxml2 -D_POSIX_SOURCE -D_CS_HAVE_MPI  -D_CS_HAVE_SOCKET  -D_CS_HAVE_XML     -DNDEBUG  -Xa -Ktrap=fp   -O1  -c cs_base.c
PGC-W-0153-Struct or union _IO_2_1_stderr_ has incomplete type (cs_base.c: 338)
PGC-W-0153-Struct or union _IO_2_1_stdout_ has incomplete type (cs_base.c: 337)
PGC-W-0153-Struct or union _IO_2_1_stdin_ has incomplete type (cs_base.c: 336)
PGC/x86-64 Linux/x86-64 6.2-5: compilation completed with warnings
cs_comm.c
mpicc   -I/home/saturne/Saturne/opt/bft-1.0.2/arch/Linux/include -I/home/saturne/Saturne/opt/fvm-0.6.1/arch/Linux/include   -I/home/saturne/Saturne/opt/libxml2-2.6.19/include/libxml2 -D_POSIX_SOURCE -D_CS_HAVE_MPI  -D_CS_HAVE_SOCKET  -D_CS_HAVE_XML     -DNDEBUG  -Xa -Ktrap=fp   -O1  -c cs_comm.c
PGC-W-0153-Struct or union _IO_2_1_stderr_ has incomplete type (cs_comm.c: 338)
PGC-W-0153-Struct or union _IO_2_1_stdout_ has incomplete type (cs_comm.c: 337)
PGC-W-0153-Struct or union _IO_2_1_stdin_ has incomplete type (cs_comm.c: 336)
PGC/x86-64 Linux/x86-64 6.2-5: compilation completed with warnings
cs_couplage.c
mpicc   -I/home/saturne/Saturne/opt/bft-1.0.2/arch/Linux/include -I/home/saturne/Saturne/opt/fvm-0.6.1/arch/Linux/include   -I/home/saturne/Saturne/opt/libxml2-2.6.19/include/libxml2 -D_POSIX_SOURCE -D_CS_HAVE_MPI  -D_CS_HAVE_SOCKET  -D_CS_HAVE_XML     -DNDEBUG  -Xa -Ktrap=fp   -O1  -c cs_couplage.c
PGC-W-0153-Struct or union _IO_2_1_stderr_ has incomplete type (cs_couplage.c: 338)
PGC-W-0153-Struct or union _IO_2_1_stdout_ has incomplete type (cs_couplage.c: 337)
PGC-W-0153-Struct or union _IO_2_1_stdin_ has incomplete type (cs_couplage.c: 336)
PGC/x86-64 Linux/x86-64 6.2-5: compilation completed with warnings
cs_gui.c
mpicc   -I/home/saturne/Saturne/opt/bft-1.0.2/arch/Linux/include -I/home/saturne/Saturne/opt/fvm-0.6.1/arch/Linux/include   -I/home/saturne/Saturne/opt/libxml2-2.6.19/include/libxml2 -D_POSIX_SOURCE -D_CS_HAVE_MPI  -D_CS_HAVE_SOCKET  -D_CS_HAVE_XML     -DNDEBUG  -Xa -Ktrap=fp   -O1  -c cs_gui.c
PGC-W-0266-Null argument to macro (/usr/include/bits/mathcalls.h: 55)
PGC-W-0266-Null argument to macro (/usr/include/bits/mathcalls.h: 55)
PGC-W-0266-Null argument to macro (/usr/include/bits/mathcalls.h: 55)
PGC-W-0266-Null argument to macro (/usr/include/bits/mathcalls.h: 55)
PGC-W-0266-Null argument to macro (/usr/include/bits/mathcalls.h: 55)
PGC-W-0266-Null argument to macro (/usr/include/bits/mathcalls.h: 55)
PGC-W-0266-Null argument to macro (/usr/include/bits/mathcalls.h: 55)
PGC-W-0266-Null argument to macro (/usr/include/bits/mathcalls.h: 55)
PGC-W-0266-Null argument to macro (/usr/include/bits/mathcalls.h: 57)
PGC-W-0266-Null argument to macro (/usr/include/bits/mathcalls.h: 57)
PGC-W-0266-Null argument to macro (/usr/include/bits/mathcalls.h: 57)
PGC-W-0266-Null argument to macro (/usr/include/bits/mathcalls.h: 57)
PGC-W-0266-Null argument to macro (/usr/include/bits/mathcalls.h: 57)
PGC-W-0266-Null argument to macro (/usr/include/bits/mathcalls.h: 57)
PGC-W-0266-Null argument to macro (/usr/include/bits/mathcalls.h: 57)
PGC-W-0266-Null argument to macro (/usr/include/bits/mathcalls.h: 57)
PGC-W-0266-Null argument to macro (/usr/include/bits/mathcalls.h: 59)
PGC-W-0266-Null argument to macro (/usr/include/bits/mathcalls.h: 59)
PGC-W-0266-Null argument to macro (/usr/include/bits/mathcalls.h: 59)
PGC-W-0266-Null argument to macro (/usr/include/bits/mathcalls.h: 59)
PGC-W-0266-Null argument to macro (/usr/include/bits/mathcalls.h: 59)
PGC-W-0266-Null argument to macro (/usr/include/bits/mathcalls.h: 59)
PGC-W-0266-Null argument to macro (/usr/include/bits/mathcalls.h: 59)
PGC-W-0266-Null argument to macro (/usr/include/bits/mathcalls.h: 59)
PGC-W-0266-Null argument to macro (/usr/include/bits/mathcalls.h: 61)
PGC-W-0266-Null argument to macro (/usr/include/bits/mathcalls.h: 61)
PGC-W-0266-Null argument to macro (/usr/include/bits/mathcalls.h: 61)
PGC-W-0266-Null argument to macro (/usr/include/bits/mathcalls.h: 61)
PGC-W-0266-Null argument to macro (/usr/include/bits/mathcalls.h: 61)
PGC-W-0266-Null argument to macro (/usr/include/bits/mathcalls.h: 61)
PGC-W-0266-Null argument to macro (/usr/include/bits/mathcalls.h: 61)
PGC-W-0266-Null argument to macro (/usr/include/bits/mathcalls.h: 61)
PGC-W-0266-Null argument to macro (/usr/include/bits/mathcalls.h: 64)
PGC-W-0266-Null argument to macro (/usr/include/bits/mathcalls.h: 64)
PGC-W-0266-Null argument to macro (/usr/include/bits/mathcalls.h: 64)
PGC-W-0266-Null argument to macro (/usr/include/bits/mathcalls.h: 64)
PGC-W-0266-Null argument to macro (/usr/include/bits/mathcalls.h: 64)
PGC-W-0266-Null argument to macro (/usr/include/bits/mathcalls.h: 64)
PGC-W-0266-Null argument to macro (/usr/include/bits/mathcalls.h: 64)
PGC-W-0266-Null argument to macro (/usr/include/bits/mathcalls.h: 64)
PGC-W-0266-Null argument to macro (/usr/include/bits/mathcalls.h: 66)
PGC-W-0266-Null argument to macro (/usr/include/bits/mathcalls.h: 66)
PGC-W-0266-Null argument to macro (/usr/include/bits/mathcalls.h: 66)
PGC-W-0266-Null argument to macro (/usr/include/bits/mathcalls.h: 66)
PGC-W-0266-Null argument to macro (/usr/include/bits/mathcalls.h: 66)
PGC-W-0266-Null argument to macro (/usr/include/bits/mathcalls.h: 66)
PGC-W-0266-Null argument to macro (/usr/include/bits/mathcalls.h: 66)
PGC-W-0266-Null argument to macro (/usr/include/bits/mathcalls.h: 66)
PGC-W-0266-Null argument to macro (/usr/include/bits/mathcalls.h: 68)
PGC-W-0266-Null argument to macro (/usr/include/bits/mathcalls.h: 68)
PGC-W-0266-Null argument to macro (/usr/include/bits/mathcalls.h: 68)
PGC-W-0266-Null argument to macro (/usr/include/bits/mathcalls.h: 68)
PGC-W-0266-Null argument to macro (/usr/include/bits/mathcalls.h: 68)
PGC-W-0266-Null argument to macro (/usr/include/bits/mathcalls.h: 68)
PGC-W-0266-Null argument to macro (/usr/include/bits/mathcalls.h: 68)
PGC-W-0266-Null argument to macro (/usr/include/bits/mathcalls.h: 68)
PGC-W-0266-Null argument to macro (/usr/include/bits/mathcalls.h: 73)
PGC-W-0266-Null argument to macro (/usr/include/bits/mathcalls.h: 73)
PGC-W-0266-Null argument to macro (/usr/include/bits/mathcalls.h: 73)
PGC-W-0266-Null argument to macro (/usr/include/bits/mathcalls.h: 73)
PGC-W-0266-Null argument to macro (/usr/include/bits/mathcalls.h: 73)
PGC-W-0266-Null argument to macro (/usr/include/bits/mathcalls.h: 73)
PGC-W-0266-Null argument to macro (/usr/include/bits/mathcalls.h: 73)
PGC-W-0266-Null argument to macro (/usr/include/bits/mathcalls.h: 73)
PGC-W-0266-Null argument to macro (/usr/include/bits/mathcalls.h: 75)
PGC-W-0266-Null argument to macro (/usr/include/bits/mathcalls.h: 75)
PGC-W-0266-Null argument to macro (/usr/include/bits/mathcalls.h: 75)
PGC-W-0266-Null argument to macro (/usr/include/bits/mathcalls.h: 75)
PGC-W-0266-Null argument to macro (/usr/include/bits/mathcalls.h: 75)
PGC-W-0266-Null argument to macro (/usr/include/bits/mathcalls.h: 75)
PGC-W-0266-Null argument to macro (/usr/include/bits/mathcalls.h: 75)
PGC-W-0266-Null argument to macro (/usr/include/bits/mathcalls.h: 75)
PGC-W-0266-Null argument to macro (/usr/include/bits/mathcalls.h: 77)
PGC-W-0266-Null argument to macro (/usr/include/bits/mathcalls.h: 77)
PGC-W-0266-Null argument to macro (/usr/include/bits/mathcalls.h: 77)
PGC-W-0266-Null argument to macro (/usr/include/bits/mathcalls.h: 77)
PGC-W-0266-Null argument to macro (/usr/include/bits/mathcalls.h: 77)
PGC-W-0266-Null argument to macro (/usr/include/bits/mathcalls.h: 77)
PGC-W-0266-Null argument to macro (/usr/include/bits/mathcalls.h: 77)
PGC-W-0266-Null argument to macro (/usr/include/bits/mathcalls.h: 77)
PGC-W-0266-Null argument to macro (/usr/include/bits/mathcalls.h: 101)
PGC-W-0266-Null argument to macro (/usr/include/bits/mathcalls.h: 101)
PGC-W-0266-Null argument to macro (/usr/include/bits/mathcalls.h: 101)
PGC-W-0266-Null argument to macro (/usr/include/bits/mathcalls.h: 101)
PGC-W-0266-Null argument to macro (/usr/include/bits/mathcalls.h: 101)
PGC-W-0266-Null argument to macro (/usr/include/bits/mathcalls.h: 101)
PGC-W-0266-Null argument to macro (/usr/include/bits/mathcalls.h: 101)
PGC-W-0266-Null argument to macro (/usr/include/bits/mathcalls.h: 101)
PGC-W-0266-Null argument to macro (/usr/include/bits/mathcalls.h: 104)
PGC-W-0266-Null argument to macro (/usr/include/bits/mathcalls.h: 104)
PGC-W-0266-Null argument to macro (/usr/include/bits/mathcalls.h: 104)
PGC-W-0266-Null argument to macro (/usr/include/bits/mathcalls.h: 104)
PGC-W-0266-Null argument to macro (/usr/include/bits/mathcalls.h: 104)
PGC-W-0266-Null argument to macro (/usr/include/bits/mathcalls.h: 104)
PGC-W-0266-Null argument to macro (/usr/include/bits/mathcalls.h: 104)
PGC-W-0266-Null argument to macro (/usr/include/bits/mathcalls.h: 104)
PGC-W-0266-Null argument to macro (/usr/include/bits/mathcalls.h: 107)
PGC-W-0266-Null argument to macro (/usr/include/bits/mathcalls.h: 107)
PGC-W-0266-Null argument to macro (/usr/include/bits/mathcalls.h: 107)
PGC-W-0266-Null argument to macro (/usr/include/bits/mathcalls.h: 107)
PGC-W-0266-Null argument to macro (/usr/include/bits/mathcalls.h: 107)
PGC-W-0266-Null argument to macro (/usr/include/bits/mathcalls.h: 107)
PGC-W-0266-Null argument to macro (/usr/include/bits/mathcalls.h: 107)
PGC-W-0266-Null argument to macro (/usr/include/bits/mathcalls.h: 107)
PGC-W-0266-Null argument to macro (/usr/include/bits/mathcalls.h: 110)
PGC-W-0266-Null argument to macro (/usr/include/bits/mathcalls.h: 110)
PGC-W-0266-Null argument to macro (/usr/include/bits/mathcalls.h: 110)
PGC-W-0266-Null argument to macro (/usr/include/bits/mathcalls.h: 110)
PGC-W-0266-Null argument to macro (/usr/include/bits/mathcalls.h: 110)
PGC-W-0266-Null argument to macro (/usr/include/bits/mathcalls.h: 110)
PGC-W-0266-Null argument to macro (/usr/include/bits/mathcalls.h: 110)
PGC-W-0266-Null argument to macro (/usr/include/bits/mathcalls.h: 110)
PGC-W-0266-Null argument to macro (/usr/include/bits/mathcalls.h: 113)
PGC-W-0266-Null argument to macro (/usr/include/bits/mathcalls.h: 113)
PGC-W-0266-Null argument to macro (/usr/include/bits/mathcalls.h: 113)
PGC-W-0266-Null argument to macro (/usr/include/bits/mathcalls.h: 113)
PGC-W-0266-Null argument to macro (/usr/include/bits/mathcalls.h: 113)
PGC-W-0266-Null argument to macro (/usr/include/bits/mathcalls.h: 113)
PGC-W-0266-Null argument to macro (/usr/include/bits/mathcalls.h: 113)
PGC-W-0266-Null argument to macro (/usr/include/bits/mathcalls.h: 113)
PGC-W-0266-Null argument to macro (/usr/include/bits/mathcalls.h: 116)
PGC-W-0266-Null argument to macro (/usr/include/bits/mathcalls.h: 116)
PGC-W-0266-Null argument to macro (/usr/include/bits/mathcalls.h: 116)
PGC-W-0266-Null argument to macro (/usr/include/bits/mathcalls.h: 116)
PGC-W-0266-Null argument to macro (/usr/include/bits/mathcalls.h: 116)
PGC-W-0266-Null argument to macro (/usr/include/bits/mathcalls.h: 116)
PGC-W-0266-Null argument to macro (/usr/include/bits/mathcalls.h: 116)
PGC-W-0266-Null argument to macro (/usr/include/bits/mathcalls.h: 116)
PGC-W-0266-Null argument to macro (/usr/include/bits/mathcalls.h: 154)
PGC-W-0266-Null argument to macro (/usr/include/bits/mathcalls.h: 154)
PGC-W-0266-Null argument to macro (/usr/include/bits/mathcalls.h: 154)
PGC-W-0266-Null argument to macro (/usr/include/bits/mathcalls.h: 154)
PGC-W-0266-Null argument to macro (/usr/include/bits/mathcalls.h: 154)
PGC-W-0266-Null argument to macro (/usr/include/bits/mathcalls.h: 154)
PGC-W-0266-Null argument to macro (/usr/include/bits/mathcalls.h: 154)
PGC-W-0266-Null argument to macro (/usr/include/bits/mathcalls.h: 154)
PGC-W-0266-Null argument to macro (/usr/include/bits/mathcalls.h: 157)
PGC-W-0266-Null argument to macro (/usr/include/bits/mathcalls.h: 157)
PGC-W-0266-Null argument to macro (/usr/include/bits/mathcalls.h: 157)
PGC-W-0266-Null argument to macro (/usr/include/bits/mathcalls.h: 157)
PGC-W-0266-Null argument to macro (/usr/include/bits/mathcalls.h: 157)
PGC-W-0266-Null argument to macro (/usr/include/bits/mathcalls.h: 157)
PGC-W-0266-Null argument to macro (/usr/include/bits/mathcalls.h: 157)
PGC-W-0266-Null argument to macro (/usr/include/bits/mathcalls.h: 157)
PGC-W-0266-Null argument to macro (/usr/include/bits/mathcalls.h: 179)
PGC-W-0266-Null argument to macro (/usr/include/bits/mathcalls.h: 179)
PGC-W-0266-Null argument to macro (/usr/include/bits/mathcalls.h: 179)
PGC-W-0266-Null argument to macro (/usr/include/bits/mathcalls.h: 179)
PGC-W-0266-Null argument to macro (/usr/include/bits/mathcalls.h: 179)
PGC-W-0266-Null argument to macro (/usr/include/bits/mathcalls.h: 179)
PGC-W-0266-Null argument to macro (/usr/include/bits/mathcalls.h: 179)
PGC-W-0266-Null argument to macro (/usr/include/bits/mathcalls.h: 179)
PGC-W-0266-Null argument to macro (/usr/include/bits/mathcalls.h: 182)
PGC-W-0266-Null argument to macro (/usr/include/bits/mathcalls.h: 182)
PGC-W-0266-Null argument to macro (/usr/include/bits/mathcalls.h: 182)
PGC-W-0266-Null argument to macro (/usr/include/bits/mathcalls.h: 182)
PGC-W-0266-Null argument to macro (/usr/include/bits/mathcalls.h: 182)
PGC-W-0266-Null argument to macro (/usr/include/bits/mathcalls.h: 182)
PGC-W-0266-Null argument to macro (/usr/include/bits/mathcalls.h: 182)
PGC-W-0266-Null argument to macro (/usr/include/bits/mathcalls.h: 182)
PGC-W-0266-Null argument to macro (/usr/include/bits/mathcalls.h: 185)
PGC-W-0266-Null argument to macro (/usr/include/bits/mathcalls.h: 185)
PGC-W-0266-Null argument to macro (/usr/include/bits/mathcalls.h: 185)
PGC-W-0266-Null argument to macro (/usr/include/bits/mathcalls.h: 185)
PGC-W-0266-Null argument to macro (/usr/include/bits/mathcalls.h: 185)
PGC-W-0266-Null argument to macro (/usr/include/bits/mathcalls.h: 185)
PGC-W-0266-Null argument to macro (/usr/include/bits/mathcalls.h: 185)
PGC-W-0266-Null argument to macro (/usr/include/bits/mathcalls.h: 185)
PGC-W-0266-Null argument to macro (/usr/include/bits/mathcalls.h: 188)
PGC-W-0266-Null argument to macro (/usr/include/bits/mathcalls.h: 188)
PGC-W-0266-Null argument to macro (/usr/include/bits/mathcalls.h: 188)
PGC-W-0266-Null argument to macro (/usr/include/bits/mathcalls.h: 188)
PGC-W-0266-Null argument to macro (/usr/include/bits/mathcalls.h: 188)
PGC-W-0266-Null argument to macro (/usr/include/bits/mathcalls.h: 188)
PGC-W-0266-Null argument to macro (/usr/include/bits/mathcalls.h: 188)
PGC-W-0266-Null argument to macro (/usr/include/bits/mathcalls.h: 188)
PGC-W-0266-Null argument to macro (/usr/include/bits/mathcalls.h: 193)
PGC-W-0266-Null argument to macro (/usr/include/bits/mathcalls.h: 193)
PGC-W-0266-Null argument to macro (/usr/include/bits/mathcalls.h: 193)
PGC-W-0266-Null argument to macro (/usr/include/bits/mathcalls.h: 196)
PGC-W-0266-Null argument to macro (/usr/include/bits/mathcalls.h: 196)
PGC-W-0266-Null argument to macro (/usr/include/bits/mathcalls.h: 196)
PGC-W-0266-Null argument to macro (/usr/include/bits/mathcalls.h: 231)
PGC-W-0266-Null argument to macro (/usr/include/bits/mathcalls.h: 231)
PGC-W-0266-Null argument to macro (/usr/include/bits/mathcalls.h: 231)
PGC-W-0153-Struct or union _IO_2_1_stderr_ has incomplete type (cs_gui.c: 338)
PGC-W-0153-Struct or union _IO_2_1_stdout_ has incomplete type (cs_gui.c: 337)
PGC-W-0153-Struct or union _IO_2_1_stdin_ has incomplete type (cs_gui.c: 336)
PGC-W-0155-No va_start() seen  (cs_gui.c: 2627)
PGC-W-0155-No va_start() seen  (cs_gui.c: 2674)
PGC/x86-64 Linux/x86-64 6.2-5: compilation completed with warnings
cs_gui_matisse.c
mpicc   -I/home/saturne/Saturne/opt/bft-1.0.2/arch/Linux/include -I/home/saturne/Saturne/opt/fvm-0.6.1/arch/Linux/include   -I/home/saturne/Saturne/opt/libxml2-2.6.19/include/libxml2 -D_POSIX_SOURCE -D_CS_HAVE_MPI  -D_CS_HAVE_SOCKET  -D_CS_HAVE_XML     -DNDEBUG  -Xa -Ktrap=fp   -O1  -c cs_gui_matisse.c
PGC-W-0266-Null argument to macro (/usr/include/bits/mathcalls.h: 55)
PGC-W-0266-Null argument to macro (/usr/include/bits/mathcalls.h: 55)
PGC-W-0266-Null argument to macro (/usr/include/bits/mathcalls.h: 55)
PGC-W-0266-Null argument to macro (/usr/include/bits/mathcalls.h: 55)
PGC-W-0266-Null argument to macro (/usr/include/bits/mathcalls.h: 55)
PGC-W-0266-Null argument to macro (/usr/include/bits/mathcalls.h: 55)
PGC-W-0266-Null argument to macro (/usr/include/bits/mathcalls.h: 55)
PGC-W-0266-Null argument to macro (/usr/include/bits/mathcalls.h: 55)
PGC-W-0266-Null argument to macro (/usr/include/bits/mathcalls.h: 57)
PGC-W-0266-Null argument to macro (/usr/include/bits/mathcalls.h: 57)
PGC-W-0266-Null argument to macro (/usr/include/bits/mathcalls.h: 57)
PGC-W-0266-Null argument to macro (/usr/include/bits/mathcalls.h: 57)
PGC-W-0266-Null argument to macro (/usr/include/bits/mathcalls.h: 57)
PGC-W-0266-Null argument to macro (/usr/include/bits/mathcalls.h: 57)
PGC-W-0266-Null argument to macro (/usr/include/bits/mathcalls.h: 57)
PGC-W-0266-Null argument to macro (/usr/include/bits/mathcalls.h: 57)
PGC-W-0266-Null argument to macro (/usr/include/bits/mathcalls.h: 59)
PGC-W-0266-Null argument to macro (/usr/include/bits/mathcalls.h: 59)
PGC-W-0266-Null argument to macro (/usr/include/bits/mathcalls.h: 59)
PGC-W-0266-Null argument to macro (/usr/include/bits/mathcalls.h: 59)
PGC-W-0266-Null argument to macro (/usr/include/bits/mathcalls.h: 59)
PGC-W-0266-Null argument to macro (/usr/include/bits/mathcalls.h: 59)
PGC-W-0266-Null argument to macro (/usr/include/bits/mathcalls.h: 59)
PGC-W-0266-Null argument to macro (/usr/include/bits/mathcalls.h: 59)
PGC-W-0266-Null argument to macro (/usr/include/bits/mathcalls.h: 61)
PGC-W-0266-Null argument to macro (/usr/include/bits/mathcalls.h: 61)
PGC-W-0266-Null argument to macro (/usr/include/bits/mathcalls.h: 61)
PGC-W-0266-Null argument to macro (/usr/include/bits/mathcalls.h: 61)
PGC-W-0266-Null argument to macro (/usr/include/bits/mathcalls.h: 61)
PGC-W-0266-Null argument to macro (/usr/include/bits/mathcalls.h: 61)
PGC-W-0266-Null argument to macro (/usr/include/bits/mathcalls.h: 61)
PGC-W-0266-Null argument to macro (/usr/include/bits/mathcalls.h: 61)
PGC-W-0266-Null argument to macro (/usr/include/bits/mathcalls.h: 64)
PGC-W-0266-Null argument to macro (/usr/include/bits/mathcalls.h: 64)
PGC-W-0266-Null argument to macro (/usr/include/bits/mathcalls.h: 64)
PGC-W-0266-Null argument to macro (/usr/include/bits/mathcalls.h: 64)
PGC-W-0266-Null argument to macro (/usr/include/bits/mathcalls.h: 64)
PGC-W-0266-Null argument to macro (/usr/include/bits/mathcalls.h: 64)
PGC-W-0266-Null argument to macro (/usr/include/bits/mathcalls.h: 64)
PGC-W-0266-Null argument to macro (/usr/include/bits/mathcalls.h: 64)
PGC-W-0266-Null argument to macro (/usr/include/bits/mathcalls.h: 66)
PGC-W-0266-Null argument to macro (/usr/include/bits/mathcalls.h: 66)
PGC-W-0266-Null argument to macro (/usr/include/bits/mathcalls.h: 66)
PGC-W-0266-Null argument to macro (/usr/include/bits/mathcalls.h: 66)
PGC-W-0266-Null argument to macro (/usr/include/bits/mathcalls.h: 66)
PGC-W-0266-Null argument to macro (/usr/include/bits/mathcalls.h: 66)
PGC-W-0266-Null argument to macro (/usr/include/bits/mathcalls.h: 66)
PGC-W-0266-Null argument to macro (/usr/include/bits/mathcalls.h: 66)
PGC-W-0266-Null argument to macro (/usr/include/bits/mathcalls.h: 68)
PGC-W-0266-Null argument to macro (/usr/include/bits/mathcalls.h: 68)
PGC-W-0266-Null argument to macro (/usr/include/bits/mathcalls.h: 68)
PGC-W-0266-Null argument to macro (/usr/include/bits/mathcalls.h: 68)
PGC-W-0266-Null argument to macro (/usr/include/bits/mathcalls.h: 68)
PGC-W-0266-Null argument to macro (/usr/include/bits/mathcalls.h: 68)
PGC-W-0266-Null argument to macro (/usr/include/bits/mathcalls.h: 68)
PGC-W-0266-Null argument to macro (/usr/include/bits/mathcalls.h: 68)
PGC-W-0266-Null argument to macro (/usr/include/bits/mathcalls.h: 73)
PGC-W-0266-Null argument to macro (/usr/include/bits/mathcalls.h: 73)
PGC-W-0266-Null argument to macro (/usr/include/bits/mathcalls.h: 73)
PGC-W-0266-Null argument to macro (/usr/include/bits/mathcalls.h: 73)
PGC-W-0266-Null argument to macro (/usr/include/bits/mathcalls.h: 73)
PGC-W-0266-Null argument to macro (/usr/include/bits/mathcalls.h: 73)
PGC-W-0266-Null argument to macro (/usr/include/bits/mathcalls.h: 73)
PGC-W-0266-Null argument to macro (/usr/include/bits/mathcalls.h: 73)
PGC-W-0266-Null argument to macro (/usr/include/bits/mathcalls.h: 75)
PGC-W-0266-Null argument to macro (/usr/include/bits/mathcalls.h: 75)
PGC-W-0266-Null argument to macro (/usr/include/bits/mathcalls.h: 75)
PGC-W-0266-Null argument to macro (/usr/include/bits/mathcalls.h: 75)
PGC-W-0266-Null argument to macro (/usr/include/bits/mathcalls.h: 75)
PGC-W-0266-Null argument to macro (/usr/include/bits/mathcalls.h: 75)
PGC-W-0266-Null argument to macro (/usr/include/bits/mathcalls.h: 75)
PGC-W-0266-Null argument to macro (/usr/include/bits/mathcalls.h: 75)
PGC-W-0266-Null argument to macro (/usr/include/bits/mathcalls.h: 77)
PGC-W-0266-Null argument to macro (/usr/include/bits/mathcalls.h: 77)
PGC-W-0266-Null argument to macro (/usr/include/bits/mathcalls.h: 77)
PGC-W-0266-Null argument to macro (/usr/include/bits/mathcalls.h: 77)
PGC-W-0266-Null argument to macro (/usr/include/bits/mathcalls.h: 77)
PGC-W-0266-Null argument to macro (/usr/include/bits/mathcalls.h: 77)
PGC-W-0266-Null argument to macro (/usr/include/bits/mathcalls.h: 77)
PGC-W-0266-Null argument to macro (/usr/include/bits/mathcalls.h: 77)
PGC-W-0266-Null argument to macro (/usr/include/bits/mathcalls.h: 101)
PGC-W-0266-Null argument to macro (/usr/include/bits/mathcalls.h: 101)
PGC-W-0266-Null argument to macro (/usr/include/bits/mathcalls.h: 101)
PGC-W-0266-Null argument to macro (/usr/include/bits/mathcalls.h: 101)
PGC-W-0266-Null argument to macro (/usr/include/bits/mathcalls.h: 101)
PGC-W-0266-Null argument to macro (/usr/include/bits/mathcalls.h: 101)
PGC-W-0266-Null argument to macro (/usr/include/bits/mathcalls.h: 101)
PGC-W-0266-Null argument to macro (/usr/include/bits/mathcalls.h: 101)
PGC-W-0266-Null argument to macro (/usr/include/bits/mathcalls.h: 104)
PGC-W-0266-Null argument to macro (/usr/include/bits/mathcalls.h: 104)
PGC-W-0266-Null argument to macro (/usr/include/bits/mathcalls.h: 104)
PGC-W-0266-Null argument to macro (/usr/include/bits/mathcalls.h: 104)
PGC-W-0266-Null argument to macro (/usr/include/bits/mathcalls.h: 104)
PGC-W-0266-Null argument to macro (/usr/include/bits/mathcalls.h: 104)
PGC-W-0266-Null argument to macro (/usr/include/bits/mathcalls.h: 104)
PGC-W-0266-Null argument to macro (/usr/include/bits/mathcalls.h: 104)
PGC-W-0266-Null argument to macro (/usr/include/bits/mathcalls.h: 107)
PGC-W-0266-Null argument to macro (/usr/include/bits/mathcalls.h: 107)
PGC-W-0266-Null argument to macro (/usr/include/bits/mathcalls.h: 107)
PGC-W-0266-Null argument to macro (/usr/include/bits/mathcalls.h: 107)
PGC-W-0266-Null argument to macro (/usr/include/bits/mathcalls.h: 107)
PGC-W-0266-Null argument to macro (/usr/include/bits/mathcalls.h: 107)
PGC-W-0266-Null argument to macro (/usr/include/bits/mathcalls.h: 107)
PGC-W-0266-Null argument to macro (/usr/include/bits/mathcalls.h: 107)
PGC-W-0266-Null argument to macro (/usr/include/bits/mathcalls.h: 110)
PGC-W-0266-Null argument to macro (/usr/include/bits/mathcalls.h: 110)
PGC-W-0266-Null argument to macro (/usr/include/bits/mathcalls.h: 110)
PGC-W-0266-Null argument to macro (/usr/include/bits/mathcalls.h: 110)
PGC-W-0266-Null argument to macro (/usr/include/bits/mathcalls.h: 110)
PGC-W-0266-Null argument to macro (/usr/include/bits/mathcalls.h: 110)
PGC-W-0266-Null argument to macro (/usr/include/bits/mathcalls.h: 110)
PGC-W-0266-Null argument to macro (/usr/include/bits/mathcalls.h: 110)
PGC-W-0266-Null argument to macro (/usr/include/bits/mathcalls.h: 113)
PGC-W-0266-Null argument to macro (/usr/include/bits/mathcalls.h: 113)
PGC-W-0266-Null argument to macro (/usr/include/bits/mathcalls.h: 113)
PGC-W-0266-Null argument to macro (/usr/include/bits/mathcalls.h: 113)
PGC-W-0266-Null argument to macro (/usr/include/bits/mathcalls.h: 113)
PGC-W-0266-Null argument to macro (/usr/include/bits/mathcalls.h: 113)
PGC-W-0266-Null argument to macro (/usr/include/bits/mathcalls.h: 113)
PGC-W-0266-Null argument to macro (/usr/include/bits/mathcalls.h: 113)
PGC-W-0266-Null argument to macro (/usr/include/bits/mathcalls.h: 116)
PGC-W-0266-Null argument to macro (/usr/include/bits/mathcalls.h: 116)
PGC-W-0266-Null argument to macro (/usr/include/bits/mathcalls.h: 116)
PGC-W-0266-Null argument to macro (/usr/include/bits/mathcalls.h: 116)
PGC-W-0266-Null argument to macro (/usr/include/bits/mathcalls.h: 116)
PGC-W-0266-Null argument to macro (/usr/include/bits/mathcalls.h: 116)
PGC-W-0266-Null argument to macro (/usr/include/bits/mathcalls.h: 116)
PGC-W-0266-Null argument to macro (/usr/include/bits/mathcalls.h: 116)
PGC-W-0266-Null argument to macro (/usr/include/bits/mathcalls.h: 154)
PGC-W-0266-Null argument to macro (/usr/include/bits/mathcalls.h: 154)
PGC-W-0266-Null argument to macro (/usr/include/bits/mathcalls.h: 154)
PGC-W-0266-Null argument to macro (/usr/include/bits/mathcalls.h: 154)
PGC-W-0266-Null argument to macro (/usr/include/bits/mathcalls.h: 154)
PGC-W-0266-Null argument to macro (/usr/include/bits/mathcalls.h: 154)
PGC-W-0266-Null argument to macro (/usr/include/bits/mathcalls.h: 154)
PGC-W-0266-Null argument to macro (/usr/include/bits/mathcalls.h: 154)
PGC-W-0266-Null argument to macro (/usr/include/bits/mathcalls.h: 157)
PGC-W-0266-Null argument to macro (/usr/include/bits/mathcalls.h: 157)
PGC-W-0266-Null argument to macro (/usr/include/bits/mathcalls.h: 157)
PGC-W-0266-Null argument to macro (/usr/include/bits/mathcalls.h: 157)
PGC-W-0266-Null argument to macro (/usr/include/bits/mathcalls.h: 157)
PGC-W-0266-Null argument to macro (/usr/include/bits/mathcalls.h: 157)
PGC-W-0266-Null argument to macro (/usr/include/bits/mathcalls.h: 157)
PGC-W-0266-Null argument to macro (/usr/include/bits/mathcalls.h: 157)
PGC-W-0266-Null argument to macro (/usr/include/bits/mathcalls.h: 179)
PGC-W-0266-Null argument to macro (/usr/include/bits/mathcalls.h: 179)
PGC-W-0266-Null argument to macro (/usr/include/bits/mathcalls.h: 179)
PGC-W-0266-Null argument to macro (/usr/include/bits/mathcalls.h: 179)
PGC-W-0266-Null argument to macro (/usr/include/bits/mathcalls.h: 179)
PGC-W-0266-Null argument to macro (/usr/include/bits/mathcalls.h: 179)
PGC-W-0266-Null argument to macro (/usr/include/bits/mathcalls.h: 179)
PGC-W-0266-Null argument to macro (/usr/include/bits/mathcalls.h: 179)
PGC-W-0266-Null argument to macro (/usr/include/bits/mathcalls.h: 182)
PGC-W-0266-Null argument to macro (/usr/include/bits/mathcalls.h: 182)
PGC-W-0266-Null argument to macro (/usr/include/bits/mathcalls.h: 182)
PGC-W-0266-Null argument to macro (/usr/include/bits/mathcalls.h: 182)
PGC-W-0266-Null argument to macro (/usr/include/bits/mathcalls.h: 182)
PGC-W-0266-Null argument to macro (/usr/include/bits/mathcalls.h: 182)
PGC-W-0266-Null argument to macro (/usr/include/bits/mathcalls.h: 182)
PGC-W-0266-Null argument to macro (/usr/include/bits/mathcalls.h: 182)
PGC-W-0266-Null argument to macro (/usr/include/bits/mathcalls.h: 185)
PGC-W-0266-Null argument to macro (/usr/include/bits/mathcalls.h: 185)
PGC-W-0266-Null argument to macro (/usr/include/bits/mathcalls.h: 185)
PGC-W-0266-Null argument to macro (/usr/include/bits/mathcalls.h: 185)
PGC-W-0266-Null argument to macro (/usr/include/bits/mathcalls.h: 185)
PGC-W-0266-Null argument to macro (/usr/include/bits/mathcalls.h: 185)
PGC-W-0266-Null argument to macro (/usr/include/bits/mathcalls.h: 185)
PGC-W-0266-Null argument to macro (/usr/include/bits/mathcalls.h: 185)
PGC-W-0266-Null argument to macro (/usr/include/bits/mathcalls.h: 188)
PGC-W-0266-Null argument to macro (/usr/include/bits/mathcalls.h: 188)
PGC-W-0266-Null argument to macro (/usr/include/bits/mathcalls.h: 188)
PGC-W-0266-Null argument to macro (/usr/include/bits/mathcalls.h: 188)
PGC-W-0266-Null argument to macro (/usr/include/bits/mathcalls.h: 188)
PGC-W-0266-Null argument to macro (/usr/include/bits/mathcalls.h: 188)
PGC-W-0266-Null argument to macro (/usr/include/bits/mathcalls.h: 188)
PGC-W-0266-Null argument to macro (/usr/include/bits/mathcalls.h: 188)
PGC-W-0266-Null argument to macro (/usr/include/bits/mathcalls.h: 193)
PGC-W-0266-Null argument to macro (/usr/include/bits/mathcalls.h: 193)
PGC-W-0266-Null argument to macro (/usr/include/bits/mathcalls.h: 193)
PGC-W-0266-Null argument to macro (/usr/include/bits/mathcalls.h: 196)
PGC-W-0266-Null argument to macro (/usr/include/bits/mathcalls.h: 196)
PGC-W-0266-Null argument to macro (/usr/include/bits/mathcalls.h: 196)
PGC-W-0266-Null argument to macro (/usr/include/bits/mathcalls.h: 231)
PGC-W-0266-Null argument to macro (/usr/include/bits/mathcalls.h: 231)
PGC-W-0266-Null argument to macro (/usr/include/bits/mathcalls.h: 231)
PGC-W-0153-Struct or union _IO_2_1_stderr_ has incomplete type (cs_gui_matisse.c: 338)
PGC-W-0153-Struct or union _IO_2_1_stdout_ has incomplete type (cs_gui_matisse.c: 337)
PGC-W-0153-Struct or union _IO_2_1_stdin_ has incomplete type (cs_gui_matisse.c: 336)
PGC/x86-64 Linux/x86-64 6.2-5: compilation completed with warnings
cs_gui_radiative_transfer.c
mpicc   -I/home/saturne/Saturne/opt/bft-1.0.2/arch/Linux/include -I/home/saturne/Saturne/opt/fvm-0.6.1/arch/Linux/include   -I/home/saturne/Saturne/opt/libxml2-2.6.19/include/libxml2 -D_POSIX_SOURCE -D_CS_HAVE_MPI  -D_CS_HAVE_SOCKET  -D_CS_HAVE_XML     -DNDEBUG  -Xa -Ktrap=fp   -O1  -c cs_gui_radiative_transfer.c
PGC-W-0266-Null argument to macro (/usr/include/bits/mathcalls.h: 55)
PGC-W-0266-Null argument to macro (/usr/include/bits/mathcalls.h: 55)
PGC-W-0266-Null argument to macro (/usr/include/bits/mathcalls.h: 55)
PGC-W-0266-Null argument to macro (/usr/include/bits/mathcalls.h: 55)
PGC-W-0266-Null argument to macro (/usr/include/bits/mathcalls.h: 55)
PGC-W-0266-Null argument to macro (/usr/include/bits/mathcalls.h: 55)
PGC-W-0266-Null argument to macro (/usr/include/bits/mathcalls.h: 55)
PGC-W-0266-Null argument to macro (/usr/include/bits/mathcalls.h: 55)
PGC-W-0266-Null argument to macro (/usr/include/bits/mathcalls.h: 57)
PGC-W-0266-Null argument to macro (/usr/include/bits/mathcalls.h: 57)
PGC-W-0266-Null argument to macro (/usr/include/bits/mathcalls.h: 57)
PGC-W-0266-Null argument to macro (/usr/include/bits/mathcalls.h: 57)
PGC-W-0266-Null argument to macro (/usr/include/bits/mathcalls.h: 57)
PGC-W-0266-Null argument to macro (/usr/include/bits/mathcalls.h: 57)
PGC-W-0266-Null argument to macro (/usr/include/bits/mathcalls.h: 57)
PGC-W-0266-Null argument to macro (/usr/include/bits/mathcalls.h: 57)
PGC-W-0266-Null argument to macro (/usr/include/bits/mathcalls.h: 59)
PGC-W-0266-Null argument to macro (/usr/include/bits/mathcalls.h: 59)
PGC-W-0266-Null argument to macro (/usr/include/bits/mathcalls.h: 59)
PGC-W-0266-Null argument to macro (/usr/include/bits/mathcalls.h: 59)
PGC-W-0266-Null argument to macro (/usr/include/bits/mathcalls.h: 59)
PGC-W-0266-Null argument to macro (/usr/include/bits/mathcalls.h: 59)
PGC-W-0266-Null argument to macro (/usr/include/bits/mathcalls.h: 59)
PGC-W-0266-Null argument to macro (/usr/include/bits/mathcalls.h: 59)
PGC-W-0266-Null argument to macro (/usr/include/bits/mathcalls.h: 61)
PGC-W-0266-Null argument to macro (/usr/include/bits/mathcalls.h: 61)
PGC-W-0266-Null argument to macro (/usr/include/bits/mathcalls.h: 61)
PGC-W-0266-Null argument to macro (/usr/include/bits/mathcalls.h: 61)
PGC-W-0266-Null argument to macro (/usr/include/bits/mathcalls.h: 61)
PGC-W-0266-Null argument to macro (/usr/include/bits/mathcalls.h: 61)
PGC-W-0266-Null argument to macro (/usr/include/bits/mathcalls.h: 61)
PGC-W-0266-Null argument to macro (/usr/include/bits/mathcalls.h: 61)
PGC-W-0266-Null argument to macro (/usr/include/bits/mathcalls.h: 64)
PGC-W-0266-Null argument to macro (/usr/include/bits/mathcalls.h: 64)
PGC-W-0266-Null argument to macro (/usr/include/bits/mathcalls.h: 64)
PGC-W-0266-Null argument to macro (/usr/include/bits/mathcalls.h: 64)
PGC-W-0266-Null argument to macro (/usr/include/bits/mathcalls.h: 64)
PGC-W-0266-Null argument to macro (/usr/include/bits/mathcalls.h: 64)
PGC-W-0266-Null argument to macro (/usr/include/bits/mathcalls.h: 64)
PGC-W-0266-Null argument to macro (/usr/include/bits/mathcalls.h: 64)
PGC-W-0266-Null argument to macro (/usr/include/bits/mathcalls.h: 66)
PGC-W-0266-Null argument to macro (/usr/include/bits/mathcalls.h: 66)
PGC-W-0266-Null argument to macro (/usr/include/bits/mathcalls.h: 66)
PGC-W-0266-Null argument to macro (/usr/include/bits/mathcalls.h: 66)
PGC-W-0266-Null argument to macro (/usr/include/bits/mathcalls.h: 66)
PGC-W-0266-Null argument to macro (/usr/include/bits/mathcalls.h: 66)
PGC-W-0266-Null argument to macro (/usr/include/bits/mathcalls.h: 66)
PGC-W-0266-Null argument to macro (/usr/include/bits/mathcalls.h: 66)
PGC-W-0266-Null argument to macro (/usr/include/bits/mathcalls.h: 68)
PGC-W-0266-Null argument to macro (/usr/include/bits/mathcalls.h: 68)
PGC-W-0266-Null argument to macro (/usr/include/bits/mathcalls.h: 68)
PGC-W-0266-Null argument to macro (/usr/include/bits/mathcalls.h: 68)
PGC-W-0266-Null argument to macro (/usr/include/bits/mathcalls.h: 68)
PGC-W-0266-Null argument to macro (/usr/include/bits/mathcalls.h: 68)
PGC-W-0266-Null argument to macro (/usr/include/bits/mathcalls.h: 68)
PGC-W-0266-Null argument to macro (/usr/include/bits/mathcalls.h: 68)
PGC-W-0266-Null argument to macro (/usr/include/bits/mathcalls.h: 73)
PGC-W-0266-Null argument to macro (/usr/include/bits/mathcalls.h: 73)
PGC-W-0266-Null argument to macro (/usr/include/bits/mathcalls.h: 73)
PGC-W-0266-Null argument to macro (/usr/include/bits/mathcalls.h: 73)
PGC-W-0266-Null argument to macro (/usr/include/bits/mathcalls.h: 73)
PGC-W-0266-Null argument to macro (/usr/include/bits/mathcalls.h: 73)
PGC-W-0266-Null argument to macro (/usr/include/bits/mathcalls.h: 73)
PGC-W-0266-Null argument to macro (/usr/include/bits/mathcalls.h: 73)
PGC-W-0266-Null argument to macro (/usr/include/bits/mathcalls.h: 75)
PGC-W-0266-Null argument to macro (/usr/include/bits/mathcalls.h: 75)
PGC-W-0266-Null argument to macro (/usr/include/bits/mathcalls.h: 75)
PGC-W-0266-Null argument to macro (/usr/include/bits/mathcalls.h: 75)
PGC-W-0266-Null argument to macro (/usr/include/bits/mathcalls.h: 75)
PGC-W-0266-Null argument to macro (/usr/include/bits/mathcalls.h: 75)
PGC-W-0266-Null argument to macro (/usr/include/bits/mathcalls.h: 75)
PGC-W-0266-Null argument to macro (/usr/include/bits/mathcalls.h: 75)
PGC-W-0266-Null argument to macro (/usr/include/bits/mathcalls.h: 77)
PGC-W-0266-Null argument to macro (/usr/include/bits/mathcalls.h: 77)
PGC-W-0266-Null argument to macro (/usr/include/bits/mathcalls.h: 77)
PGC-W-0266-Null argument to macro (/usr/include/bits/mathcalls.h: 77)
PGC-W-0266-Null argument to macro (/usr/include/bits/mathcalls.h: 77)
PGC-W-0266-Null argument to macro (/usr/include/bits/mathcalls.h: 77)
PGC-W-0266-Null argument to macro (/usr/include/bits/mathcalls.h: 77)
PGC-W-0266-Null argument to macro (/usr/include/bits/mathcalls.h: 77)
PGC-W-0266-Null argument to macro (/usr/include/bits/mathcalls.h: 101)
PGC-W-0266-Null argument to macro (/usr/include/bits/mathcalls.h: 101)
PGC-W-0266-Null argument to macro (/usr/include/bits/mathcalls.h: 101)
PGC-W-0266-Null argument to macro (/usr/include/bits/mathcalls.h: 101)
PGC-W-0266-Null argument to macro (/usr/include/bits/mathcalls.h: 101)
PGC-W-0266-Null argument to macro (/usr/include/bits/mathcalls.h: 101)
PGC-W-0266-Null argument to macro (/usr/include/bits/mathcalls.h: 101)
PGC-W-0266-Null argument to macro (/usr/include/bits/mathcalls.h: 101)
PGC-W-0266-Null argument to macro (/usr/include/bits/mathcalls.h: 104)
PGC-W-0266-Null argument to macro (/usr/include/bits/mathcalls.h: 104)
PGC-W-0266-Null argument to macro (/usr/include/bits/mathcalls.h: 104)
PGC-W-0266-Null argument to macro (/usr/include/bits/mathcalls.h: 104)
PGC-W-0266-Null argument to macro (/usr/include/bits/mathcalls.h: 104)
PGC-W-0266-Null argument to macro (/usr/include/bits/mathcalls.h: 104)
PGC-W-0266-Null argument to macro (/usr/include/bits/mathcalls.h: 104)
PGC-W-0266-Null argument to macro (/usr/include/bits/mathcalls.h: 104)
PGC-W-0266-Null argument to macro (/usr/include/bits/mathcalls.h: 107)
PGC-W-0266-Null argument to macro (/usr/include/bits/mathcalls.h: 107)
PGC-W-0266-Null argument to macro (/usr/include/bits/mathcalls.h: 107)
PGC-W-0266-Null argument to macro (/usr/include/bits/mathcalls.h: 107)
PGC-W-0266-Null argument to macro (/usr/include/bits/mathcalls.h: 107)
PGC-W-0266-Null argument to macro (/usr/include/bits/mathcalls.h: 107)
PGC-W-0266-Null argument to macro (/usr/include/bits/mathcalls.h: 107)
PGC-W-0266-Null argument to macro (/usr/include/bits/mathcalls.h: 107)
PGC-W-0266-Null argument to macro (/usr/include/bits/mathcalls.h: 110)
PGC-W-0266-Null argument to macro (/usr/include/bits/mathcalls.h: 110)
PGC-W-0266-Null argument to macro (/usr/include/bits/mathcalls.h: 110)
PGC-W-0266-Null argument to macro (/usr/include/bits/mathcalls.h: 110)
PGC-W-0266-Null argument to macro (/usr/include/bits/mathcalls.h: 110)
PGC-W-0266-Null argument to macro (/usr/include/bits/mathcalls.h: 110)
PGC-W-0266-Null argument to macro (/usr/include/bits/mathcalls.h: 110)
PGC-W-0266-Null argument to macro (/usr/include/bits/mathcalls.h: 110)
PGC-W-0266-Null argument to macro (/usr/include/bits/mathcalls.h: 113)
PGC-W-0266-Null argument to macro (/usr/include/bits/mathcalls.h: 113)
PGC-W-0266-Null argument to macro (/usr/include/bits/mathcalls.h: 113)
PGC-W-0266-Null argument to macro (/usr/include/bits/mathcalls.h: 113)
PGC-W-0266-Null argument to macro (/usr/include/bits/mathcalls.h: 113)
PGC-W-0266-Null argument to macro (/usr/include/bits/mathcalls.h: 113)
PGC-W-0266-Null argument to macro (/usr/include/bits/mathcalls.h: 113)
PGC-W-0266-Null argument to macro (/usr/include/bits/mathcalls.h: 113)
PGC-W-0266-Null argument to macro (/usr/include/bits/mathcalls.h: 116)
PGC-W-0266-Null argument to macro (/usr/include/bits/mathcalls.h: 116)
PGC-W-0266-Null argument to macro (/usr/include/bits/mathcalls.h: 116)
PGC-W-0266-Null argument to macro (/usr/include/bits/mathcalls.h: 116)
PGC-W-0266-Null argument to macro (/usr/include/bits/mathcalls.h: 116)
PGC-W-0266-Null argument to macro (/usr/include/bits/mathcalls.h: 116)
PGC-W-0266-Null argument to macro (/usr/include/bits/mathcalls.h: 116)
PGC-W-0266-Null argument to macro (/usr/include/bits/mathcalls.h: 116)
PGC-W-0266-Null argument to macro (/usr/include/bits/mathcalls.h: 154)
PGC-W-0266-Null argument to macro (/usr/include/bits/mathcalls.h: 154)
PGC-W-0266-Null argument to macro (/usr/include/bits/mathcalls.h: 154)
PGC-W-0266-Null argument to macro (/usr/include/bits/mathcalls.h: 154)
PGC-W-0266-Null argument to macro (/usr/include/bits/mathcalls.h: 154)
PGC-W-0266-Null argument to macro (/usr/include/bits/mathcalls.h: 154)
PGC-W-0266-Null argument to macro (/usr/include/bits/mathcalls.h: 154)
PGC-W-0266-Null argument to macro (/usr/include/bits/mathcalls.h: 154)
PGC-W-0266-Null argument to macro (/usr/include/bits/mathcalls.h: 157)
PGC-W-0266-Null argument to macro (/usr/include/bits/mathcalls.h: 157)
PGC-W-0266-Null argument to macro (/usr/include/bits/mathcalls.h: 157)
PGC-W-0266-Null argument to macro (/usr/include/bits/mathcalls.h: 157)
PGC-W-0266-Null argument to macro (/usr/include/bits/mathcalls.h: 157)
PGC-W-0266-Null argument to macro (/usr/include/bits/mathcalls.h: 157)
PGC-W-0266-Null argument to macro (/usr/include/bits/mathcalls.h: 157)
PGC-W-0266-Null argument to macro (/usr/include/bits/mathcalls.h: 157)
PGC-W-0266-Null argument to macro (/usr/include/bits/mathcalls.h: 179)
PGC-W-0266-Null argument to macro (/usr/include/bits/mathcalls.h: 179)
PGC-W-0266-Null argument to macro (/usr/include/bits/mathcalls.h: 179)
PGC-W-0266-Null argument to macro (/usr/include/bits/mathcalls.h: 179)
PGC-W-0266-Null argument to macro (/usr/include/bits/mathcalls.h: 179)
PGC-W-0266-Null argument to macro (/usr/include/bits/mathcalls.h: 179)
PGC-W-0266-Null argument to macro (/usr/include/bits/mathcalls.h: 179)
PGC-W-0266-Null argument to macro (/usr/include/bits/mathcalls.h: 179)
PGC-W-0266-Null argument to macro (/usr/include/bits/mathcalls.h: 182)
PGC-W-0266-Null argument to macro (/usr/include/bits/mathcalls.h: 182)
PGC-W-0266-Null argument to macro (/usr/include/bits/mathcalls.h: 182)
PGC-W-0266-Null argument to macro (/usr/include/bits/mathcalls.h: 182)
PGC-W-0266-Null argument to macro (/usr/include/bits/mathcalls.h: 182)
PGC-W-0266-Null argument to macro (/usr/include/bits/mathcalls.h: 182)
PGC-W-0266-Null argument to macro (/usr/include/bits/mathcalls.h: 182)
PGC-W-0266-Null argument to macro (/usr/include/bits/mathcalls.h: 182)
PGC-W-0266-Null argument to macro (/usr/include/bits/mathcalls.h: 185)
PGC-W-0266-Null argument to macro (/usr/include/bits/mathcalls.h: 185)
PGC-W-0266-Null argument to macro (/usr/include/bits/mathcalls.h: 185)
PGC-W-0266-Null argument to macro (/usr/include/bits/mathcalls.h: 185)
PGC-W-0266-Null argument to macro (/usr/include/bits/mathcalls.h: 185)
PGC-W-0266-Null argument to macro (/usr/include/bits/mathcalls.h: 185)
PGC-W-0266-Null argument to macro (/usr/include/bits/mathcalls.h: 185)
PGC-W-0266-Null argument to macro (/usr/include/bits/mathcalls.h: 185)
PGC-W-0266-Null argument to macro (/usr/include/bits/mathcalls.h: 188)
PGC-W-0266-Null argument to macro (/usr/include/bits/mathcalls.h: 188)
PGC-W-0266-Null argument to macro (/usr/include/bits/mathcalls.h: 188)
PGC-W-0266-Null argument to macro (/usr/include/bits/mathcalls.h: 188)
PGC-W-0266-Null argument to macro (/usr/include/bits/mathcalls.h: 188)
PGC-W-0266-Null argument to macro (/usr/include/bits/mathcalls.h: 188)
PGC-W-0266-Null argument to macro (/usr/include/bits/mathcalls.h: 188)
PGC-W-0266-Null argument to macro (/usr/include/bits/mathcalls.h: 188)
PGC-W-0266-Null argument to macro (/usr/include/bits/mathcalls.h: 193)
PGC-W-0266-Null argument to macro (/usr/include/bits/mathcalls.h: 193)
PGC-W-0266-Null argument to macro (/usr/include/bits/mathcalls.h: 193)
PGC-W-0266-Null argument to macro (/usr/include/bits/mathcalls.h: 196)
PGC-W-0266-Null argument to macro (/usr/include/bits/mathcalls.h: 196)
PGC-W-0266-Null argument to macro (/usr/include/bits/mathcalls.h: 196)
PGC-W-0266-Null argument to macro (/usr/include/bits/mathcalls.h: 231)
PGC-W-0266-Null argument to macro (/usr/include/bits/mathcalls.h: 231)
PGC-W-0266-Null argument to macro (/usr/include/bits/mathcalls.h: 231)
PGC-W-0153-Struct or union _IO_2_1_stderr_ has incomplete type (cs_gui_radiative_transfer.c: 338)
PGC-W-0153-Struct or union _IO_2_1_stdout_ has incomplete type (cs_gui_radiative_transfer.c: 337)
PGC-W-0153-Struct or union _IO_2_1_stdin_ has incomplete type (cs_gui_radiative_transfer.c: 336)
PGC/x86-64 Linux/x86-64 6.2-5: compilation completed with warnings
cs_gui_util.c
mpicc   -I/home/saturne/Saturne/opt/bft-1.0.2/arch/Linux/include -I/home/saturne/Saturne/opt/fvm-0.6.1/arch/Linux/include   -I/home/saturne/Saturne/opt/libxml2-2.6.19/include/libxml2 -D_POSIX_SOURCE -D_CS_HAVE_MPI  -D_CS_HAVE_SOCKET  -D_CS_HAVE_XML     -DNDEBUG  -Xa -Ktrap=fp   -O1  -c cs_gui_util.c
PGC-W-0266-Null argument to macro (/usr/include/bits/mathcalls.h: 55)
PGC-W-0266-Null argument to macro (/usr/include/bits/mathcalls.h: 55)
PGC-W-0266-Null argument to macro (/usr/include/bits/mathcalls.h: 55)
PGC-W-0266-Null argument to macro (/usr/include/bits/mathcalls.h: 55)
PGC-W-0266-Null argument to macro (/usr/include/bits/mathcalls.h: 55)
PGC-W-0266-Null argument to macro (/usr/include/bits/mathcalls.h: 55)
PGC-W-0266-Null argument to macro (/usr/include/bits/mathcalls.h: 55)
PGC-W-0266-Null argument to macro (/usr/include/bits/mathcalls.h: 55)
PGC-W-0266-Null argument to macro (/usr/include/bits/mathcalls.h: 57)
PGC-W-0266-Null argument to macro (/usr/include/bits/mathcalls.h: 57)
PGC-W-0266-Null argument to macro (/usr/include/bits/mathcalls.h: 57)
PGC-W-0266-Null argument to macro (/usr/include/bits/mathcalls.h: 57)
PGC-W-0266-Null argument to macro (/usr/include/bits/mathcalls.h: 57)
PGC-W-0266-Null argument to macro (/usr/include/bits/mathcalls.h: 57)
PGC-W-0266-Null argument to macro (/usr/include/bits/mathcalls.h: 57)
PGC-W-0266-Null argument to macro (/usr/include/bits/mathcalls.h: 57)
PGC-W-0266-Null argument to macro (/usr/include/bits/mathcalls.h: 59)
PGC-W-0266-Null argument to macro (/usr/include/bits/mathcalls.h: 59)
PGC-W-0266-Null argument to macro (/usr/include/bits/mathcalls.h: 59)
PGC-W-0266-Null argument to macro (/usr/include/bits/mathcalls.h: 59)
PGC-W-0266-Null argument to macro (/usr/include/bits/mathcalls.h: 59)
PGC-W-0266-Null argument to macro (/usr/include/bits/mathcalls.h: 59)
PGC-W-0266-Null argument to macro (/usr/include/bits/mathcalls.h: 59)
PGC-W-0266-Null argument to macro (/usr/include/bits/mathcalls.h: 59)
PGC-W-0266-Null argument to macro (/usr/include/bits/mathcalls.h: 61)
PGC-W-0266-Null argument to macro (/usr/include/bits/mathcalls.h: 61)
PGC-W-0266-Null argument to macro (/usr/include/bits/mathcalls.h: 61)
PGC-W-0266-Null argument to macro (/usr/include/bits/mathcalls.h: 61)
PGC-W-0266-Null argument to macro (/usr/include/bits/mathcalls.h: 61)
PGC-W-0266-Null argument to macro (/usr/include/bits/mathcalls.h: 61)
PGC-W-0266-Null argument to macro (/usr/include/bits/mathcalls.h: 61)
PGC-W-0266-Null argument to macro (/usr/include/bits/mathcalls.h: 61)
PGC-W-0266-Null argument to macro (/usr/include/bits/mathcalls.h: 64)
PGC-W-0266-Null argument to macro (/usr/include/bits/mathcalls.h: 64)
PGC-W-0266-Null argument to macro (/usr/include/bits/mathcalls.h: 64)
PGC-W-0266-Null argument to macro (/usr/include/bits/mathcalls.h: 64)
PGC-W-0266-Null argument to macro (/usr/include/bits/mathcalls.h: 64)
PGC-W-0266-Null argument to macro (/usr/include/bits/mathcalls.h: 64)
PGC-W-0266-Null argument to macro (/usr/include/bits/mathcalls.h: 64)
PGC-W-0266-Null argument to macro (/usr/include/bits/mathcalls.h: 64)
PGC-W-0266-Null argument to macro (/usr/include/bits/mathcalls.h: 66)
PGC-W-0266-Null argument to macro (/usr/include/bits/mathcalls.h: 66)
PGC-W-0266-Null argument to macro (/usr/include/bits/mathcalls.h: 66)
PGC-W-0266-Null argument to macro (/usr/include/bits/mathcalls.h: 66)
PGC-W-0266-Null argument to macro (/usr/include/bits/mathcalls.h: 66)
PGC-W-0266-Null argument to macro (/usr/include/bits/mathcalls.h: 66)
PGC-W-0266-Null argument to macro (/usr/include/bits/mathcalls.h: 66)
PGC-W-0266-Null argument to macro (/usr/include/bits/mathcalls.h: 66)
PGC-W-0266-Null argument to macro (/usr/include/bits/mathcalls.h: 68)
PGC-W-0266-Null argument to macro (/usr/include/bits/mathcalls.h: 68)
PGC-W-0266-Null argument to macro (/usr/include/bits/mathcalls.h: 68)
PGC-W-0266-Null argument to macro (/usr/include/bits/mathcalls.h: 68)
PGC-W-0266-Null argument to macro (/usr/include/bits/mathcalls.h: 68)
PGC-W-0266-Null argument to macro (/usr/include/bits/mathcalls.h: 68)
PGC-W-0266-Null argument to macro (/usr/include/bits/mathcalls.h: 68)
PGC-W-0266-Null argument to macro (/usr/include/bits/mathcalls.h: 68)
PGC-W-0266-Null argument to macro (/usr/include/bits/mathcalls.h: 73)
PGC-W-0266-Null argument to macro (/usr/include/bits/mathcalls.h: 73)
PGC-W-0266-Null argument to macro (/usr/include/bits/mathcalls.h: 73)
PGC-W-0266-Null argument to macro (/usr/include/bits/mathcalls.h: 73)
PGC-W-0266-Null argument to macro (/usr/include/bits/mathcalls.h: 73)
PGC-W-0266-Null argument to macro (/usr/include/bits/mathcalls.h: 73)
PGC-W-0266-Null argument to macro (/usr/include/bits/mathcalls.h: 73)
PGC-W-0266-Null argument to macro (/usr/include/bits/mathcalls.h: 73)
PGC-W-0266-Null argument to macro (/usr/include/bits/mathcalls.h: 75)
PGC-W-0266-Null argument to macro (/usr/include/bits/mathcalls.h: 75)
PGC-W-0266-Null argument to macro (/usr/include/bits/mathcalls.h: 75)
PGC-W-0266-Null argument to macro (/usr/include/bits/mathcalls.h: 75)
PGC-W-0266-Null argument to macro (/usr/include/bits/mathcalls.h: 75)
PGC-W-0266-Null argument to macro (/usr/include/bits/mathcalls.h: 75)
PGC-W-0266-Null argument to macro (/usr/include/bits/mathcalls.h: 75)
PGC-W-0266-Null argument to macro (/usr/include/bits/mathcalls.h: 75)
PGC-W-0266-Null argument to macro (/usr/include/bits/mathcalls.h: 77)
PGC-W-0266-Null argument to macro (/usr/include/bits/mathcalls.h: 77)
PGC-W-0266-Null argument to macro (/usr/include/bits/mathcalls.h: 77)
PGC-W-0266-Null argument to macro (/usr/include/bits/mathcalls.h: 77)
PGC-W-0266-Null argument to macro (/usr/include/bits/mathcalls.h: 77)
PGC-W-0266-Null argument to macro (/usr/include/bits/mathcalls.h: 77)
PGC-W-0266-Null argument to macro (/usr/include/bits/mathcalls.h: 77)
PGC-W-0266-Null argument to macro (/usr/include/bits/mathcalls.h: 77)
PGC-W-0266-Null argument to macro (/usr/include/bits/mathcalls.h: 101)
PGC-W-0266-Null argument to macro (/usr/include/bits/mathcalls.h: 101)
PGC-W-0266-Null argument to macro (/usr/include/bits/mathcalls.h: 101)
PGC-W-0266-Null argument to macro (/usr/include/bits/mathcalls.h: 101)
PGC-W-0266-Null argument to macro (/usr/include/bits/mathcalls.h: 101)
PGC-W-0266-Null argument to macro (/usr/include/bits/mathcalls.h: 101)
PGC-W-0266-Null argument to macro (/usr/include/bits/mathcalls.h: 101)
PGC-W-0266-Null argument to macro (/usr/include/bits/mathcalls.h: 101)
PGC-W-0266-Null argument to macro (/usr/include/bits/mathcalls.h: 104)
PGC-W-0266-Null argument to macro (/usr/include/bits/mathcalls.h: 104)
PGC-W-0266-Null argument to macro (/usr/include/bits/mathcalls.h: 104)
PGC-W-0266-Null argument to macro (/usr/include/bits/mathcalls.h: 104)
PGC-W-0266-Null argument to macro (/usr/include/bits/mathcalls.h: 104)
PGC-W-0266-Null argument to macro (/usr/include/bits/mathcalls.h: 104)
PGC-W-0266-Null argument to macro (/usr/include/bits/mathcalls.h: 104)
PGC-W-0266-Null argument to macro (/usr/include/bits/mathcalls.h: 104)
PGC-W-0266-Null argument to macro (/usr/include/bits/mathcalls.h: 107)
PGC-W-0266-Null argument to macro (/usr/include/bits/mathcalls.h: 107)
PGC-W-0266-Null argument to macro (/usr/include/bits/mathcalls.h: 107)
PGC-W-0266-Null argument to macro (/usr/include/bits/mathcalls.h: 107)
PGC-W-0266-Null argument to macro (/usr/include/bits/mathcalls.h: 107)
PGC-W-0266-Null argument to macro (/usr/include/bits/mathcalls.h: 107)
PGC-W-0266-Null argument to macro (/usr/include/bits/mathcalls.h: 107)
PGC-W-0266-Null argument to macro (/usr/include/bits/mathcalls.h: 107)
PGC-W-0266-Null argument to macro (/usr/include/bits/mathcalls.h: 110)
PGC-W-0266-Null argument to macro (/usr/include/bits/mathcalls.h: 110)
PGC-W-0266-Null argument to macro (/usr/include/bits/mathcalls.h: 110)
PGC-W-0266-Null argument to macro (/usr/include/bits/mathcalls.h: 110)
PGC-W-0266-Null argument to macro (/usr/include/bits/mathcalls.h: 110)
PGC-W-0266-Null argument to macro (/usr/include/bits/mathcalls.h: 110)
PGC-W-0266-Null argument to macro (/usr/include/bits/mathcalls.h: 110)
PGC-W-0266-Null argument to macro (/usr/include/bits/mathcalls.h: 110)
PGC-W-0266-Null argument to macro (/usr/include/bits/mathcalls.h: 113)
PGC-W-0266-Null argument to macro (/usr/include/bits/mathcalls.h: 113)
PGC-W-0266-Null argument to macro (/usr/include/bits/mathcalls.h: 113)
PGC-W-0266-Null argument to macro (/usr/include/bits/mathcalls.h: 113)
PGC-W-0266-Null argument to macro (/usr/include/bits/mathcalls.h: 113)
PGC-W-0266-Null argument to macro (/usr/include/bits/mathcalls.h: 113)
PGC-W-0266-Null argument to macro (/usr/include/bits/mathcalls.h: 113)
PGC-W-0266-Null argument to macro (/usr/include/bits/mathcalls.h: 113)
PGC-W-0266-Null argument to macro (/usr/include/bits/mathcalls.h: 116)
PGC-W-0266-Null argument to macro (/usr/include/bits/mathcalls.h: 116)
PGC-W-0266-Null argument to macro (/usr/include/bits/mathcalls.h: 116)
PGC-W-0266-Null argument to macro (/usr/include/bits/mathcalls.h: 116)
PGC-W-0266-Null argument to macro (/usr/include/bits/mathcalls.h: 116)
PGC-W-0266-Null argument to macro (/usr/include/bits/mathcalls.h: 116)
PGC-W-0266-Null argument to macro (/usr/include/bits/mathcalls.h: 116)
PGC-W-0266-Null argument to macro (/usr/include/bits/mathcalls.h: 116)
PGC-W-0266-Null argument to macro (/usr/include/bits/mathcalls.h: 154)
PGC-W-0266-Null argument to macro (/usr/include/bits/mathcalls.h: 154)
PGC-W-0266-Null argument to macro (/usr/include/bits/mathcalls.h: 154)
PGC-W-0266-Null argument to macro (/usr/include/bits/mathcalls.h: 154)
PGC-W-0266-Null argument to macro (/usr/include/bits/mathcalls.h: 154)
PGC-W-0266-Null argument to macro (/usr/include/bits/mathcalls.h: 154)
PGC-W-0266-Null argument to macro (/usr/include/bits/mathcalls.h: 154)
PGC-W-0266-Null argument to macro (/usr/include/bits/mathcalls.h: 154)
PGC-W-0266-Null argument to macro (/usr/include/bits/mathcalls.h: 157)
PGC-W-0266-Null argument to macro (/usr/include/bits/mathcalls.h: 157)
PGC-W-0266-Null argument to macro (/usr/include/bits/mathcalls.h: 157)
PGC-W-0266-Null argument to macro (/usr/include/bits/mathcalls.h: 157)
PGC-W-0266-Null argument to macro (/usr/include/bits/mathcalls.h: 157)
PGC-W-0266-Null argument to macro (/usr/include/bits/mathcalls.h: 157)
PGC-W-0266-Null argument to macro (/usr/include/bits/mathcalls.h: 157)
PGC-W-0266-Null argument to macro (/usr/include/bits/mathcalls.h: 157)
PGC-W-0266-Null argument to macro (/usr/include/bits/mathcalls.h: 179)
PGC-W-0266-Null argument to macro (/usr/include/bits/mathcalls.h: 179)
PGC-W-0266-Null argument to macro (/usr/include/bits/mathcalls.h: 179)
PGC-W-0266-Null argument to macro (/usr/include/bits/mathcalls.h: 179)
PGC-W-0266-Null argument to macro (/usr/include/bits/mathcalls.h: 179)
PGC-W-0266-Null argument to macro (/usr/include/bits/mathcalls.h: 179)
PGC-W-0266-Null argument to macro (/usr/include/bits/mathcalls.h: 179)
PGC-W-0266-Null argument to macro (/usr/include/bits/mathcalls.h: 179)
PGC-W-0266-Null argument to macro (/usr/include/bits/mathcalls.h: 182)
PGC-W-0266-Null argument to macro (/usr/include/bits/mathcalls.h: 182)
PGC-W-0266-Null argument to macro (/usr/include/bits/mathcalls.h: 182)
PGC-W-0266-Null argument to macro (/usr/include/bits/mathcalls.h: 182)
PGC-W-0266-Null argument to macro (/usr/include/bits/mathcalls.h: 182)
PGC-W-0266-Null argument to macro (/usr/include/bits/mathcalls.h: 182)
PGC-W-0266-Null argument to macro (/usr/include/bits/mathcalls.h: 182)
PGC-W-0266-Null argument to macro (/usr/include/bits/mathcalls.h: 182)
PGC-W-0266-Null argument to macro (/usr/include/bits/mathcalls.h: 185)
PGC-W-0266-Null argument to macro (/usr/include/bits/mathcalls.h: 185)
PGC-W-0266-Null argument to macro (/usr/include/bits/mathcalls.h: 185)
PGC-W-0266-Null argument to macro (/usr/include/bits/mathcalls.h: 185)
PGC-W-0266-Null argument to macro (/usr/include/bits/mathcalls.h: 185)
PGC-W-0266-Null argument to macro (/usr/include/bits/mathcalls.h: 185)
PGC-W-0266-Null argument to macro (/usr/include/bits/mathcalls.h: 185)
PGC-W-0266-Null argument to macro (/usr/include/bits/mathcalls.h: 185)
PGC-W-0266-Null argument to macro (/usr/include/bits/mathcalls.h: 188)
PGC-W-0266-Null argument to macro (/usr/include/bits/mathcalls.h: 188)
PGC-W-0266-Null argument to macro (/usr/include/bits/mathcalls.h: 188)
PGC-W-0266-Null argument to macro (/usr/include/bits/mathcalls.h: 188)
PGC-W-0266-Null argument to macro (/usr/include/bits/mathcalls.h: 188)
PGC-W-0266-Null argument to macro (/usr/include/bits/mathcalls.h: 188)
PGC-W-0266-Null argument to macro (/usr/include/bits/mathcalls.h: 188)
PGC-W-0266-Null argument to macro (/usr/include/bits/mathcalls.h: 188)
PGC-W-0266-Null argument to macro (/usr/include/bits/mathcalls.h: 193)
PGC-W-0266-Null argument to macro (/usr/include/bits/mathcalls.h: 193)
PGC-W-0266-Null argument to macro (/usr/include/bits/mathcalls.h: 193)
PGC-W-0266-Null argument to macro (/usr/include/bits/mathcalls.h: 196)
PGC-W-0266-Null argument to macro (/usr/include/bits/mathcalls.h: 196)
PGC-W-0266-Null argument to macro (/usr/include/bits/mathcalls.h: 196)
PGC-W-0266-Null argument to macro (/usr/include/bits/mathcalls.h: 231)
PGC-W-0266-Null argument to macro (/usr/include/bits/mathcalls.h: 231)
PGC-W-0266-Null argument to macro (/usr/include/bits/mathcalls.h: 231)
PGC-W-0153-Struct or union _IO_2_1_stderr_ has incomplete type (cs_gui_util.c: 338)
PGC-W-0153-Struct or union _IO_2_1_stdout_ has incomplete type (cs_gui_util.c: 337)
PGC-W-0153-Struct or union _IO_2_1_stdin_ has incomplete type (cs_gui_util.c: 336)
PGC/x86-64 Linux/x86-64 6.2-5: compilation completed with warnings
cs_maillage.c
mpicc   -I/home/saturne/Saturne/opt/bft-1.0.2/arch/Linux/include -I/home/saturne/Saturne/opt/fvm-0.6.1/arch/Linux/include   -I/home/saturne/Saturne/opt/libxml2-2.6.19/include/libxml2 -D_POSIX_SOURCE -D_CS_HAVE_MPI  -D_CS_HAVE_SOCKET  -D_CS_HAVE_XML     -DNDEBUG  -Xa -Ktrap=fp   -O1  -c cs_maillage.c
PGC-W-0153-Struct or union _IO_2_1_stderr_ has incomplete type (cs_maillage.c: 338)
PGC-W-0153-Struct or union _IO_2_1_stdout_ has incomplete type (cs_maillage.c: 337)
PGC-W-0153-Struct or union _IO_2_1_stdin_ has incomplete type (cs_maillage.c: 336)
PGC-W-0155-No va_start() seen  (cs_maillage.c: 144)
PGC/x86-64 Linux/x86-64 6.2-5: compilation completed with warnings
cs_maillage_connect.c
mpicc   -I/home/saturne/Saturne/opt/bft-1.0.2/arch/Linux/include -I/home/saturne/Saturne/opt/fvm-0.6.1/arch/Linux/include   -I/home/saturne/Saturne/opt/libxml2-2.6.19/include/libxml2 -D_POSIX_SOURCE -D_CS_HAVE_MPI  -D_CS_HAVE_SOCKET  -D_CS_HAVE_XML     -DNDEBUG  -Xa -Ktrap=fp   -O1  -c cs_maillage_connect.c
PGC-W-0153-Struct or union _IO_2_1_stderr_ has incomplete type (cs_maillage_connect.c: 338)
PGC-W-0153-Struct or union _IO_2_1_stdout_ has incomplete type (cs_maillage_connect.c: 337)
PGC-W-0153-Struct or union _IO_2_1_stdin_ has incomplete type (cs_maillage_connect.c: 336)
PGC/x86-64 Linux/x86-64 6.2-5: compilation completed with warnings
cs_maillage_grd.c
mpicc   -I/home/saturne/Saturne/opt/bft-1.0.2/arch/Linux/include -I/home/saturne/Saturne/opt/fvm-0.6.1/arch/Linux/include   -I/home/saturne/Saturne/opt/libxml2-2.6.19/include/libxml2 -D_POSIX_SOURCE -D_CS_HAVE_MPI  -D_CS_HAVE_SOCKET  -D_CS_HAVE_XML     -DNDEBUG  -Xa -Ktrap=fp   -O1  -c cs_maillage_grd.c
PGC-W-0266-Null argument to macro (/usr/include/bits/mathcalls.h: 55)
PGC-W-0266-Null argument to macro (/usr/include/bits/mathcalls.h: 55)
PGC-W-0266-Null argument to macro (/usr/include/bits/mathcalls.h: 55)
PGC-W-0266-Null argument to macro (/usr/include/bits/mathcalls.h: 55)
PGC-W-0266-Null argument to macro (/usr/include/bits/mathcalls.h: 55)
PGC-W-0266-Null argument to macro (/usr/include/bits/mathcalls.h: 55)
PGC-W-0266-Null argument to macro (/usr/include/bits/mathcalls.h: 55)
PGC-W-0266-Null argument to macro (/usr/include/bits/mathcalls.h: 55)
PGC-W-0266-Null argument to macro (/usr/include/bits/mathcalls.h: 57)
PGC-W-0266-Null argument to macro (/usr/include/bits/mathcalls.h: 57)
PGC-W-0266-Null argument to macro (/usr/include/bits/mathcalls.h: 57)
PGC-W-0266-Null argument to macro (/usr/include/bits/mathcalls.h: 57)
PGC-W-0266-Null argument to macro (/usr/include/bits/mathcalls.h: 57)
PGC-W-0266-Null argument to macro (/usr/include/bits/mathcalls.h: 57)
PGC-W-0266-Null argument to macro (/usr/include/bits/mathcalls.h: 57)
PGC-W-0266-Null argument to macro (/usr/include/bits/mathcalls.h: 57)
PGC-W-0266-Null argument to macro (/usr/include/bits/mathcalls.h: 59)
PGC-W-0266-Null argument to macro (/usr/include/bits/mathcalls.h: 59)
PGC-W-0266-Null argument to macro (/usr/include/bits/mathcalls.h: 59)
PGC-W-0266-Null argument to macro (/usr/include/bits/mathcalls.h: 59)
PGC-W-0266-Null argument to macro (/usr/include/bits/mathcalls.h: 59)
PGC-W-0266-Null argument to macro (/usr/include/bits/mathcalls.h: 59)
PGC-W-0266-Null argument to macro (/usr/include/bits/mathcalls.h: 59)
PGC-W-0266-Null argument to macro (/usr/include/bits/mathcalls.h: 59)
PGC-W-0266-Null argument to macro (/usr/include/bits/mathcalls.h: 61)
PGC-W-0266-Null argument to macro (/usr/include/bits/mathcalls.h: 61)
PGC-W-0266-Null argument to macro (/usr/include/bits/mathcalls.h: 61)
PGC-W-0266-Null argument to macro (/usr/include/bits/mathcalls.h: 61)
PGC-W-0266-Null argument to macro (/usr/include/bits/mathcalls.h: 61)
PGC-W-0266-Null argument to macro (/usr/include/bits/mathcalls.h: 61)
PGC-W-0266-Null argument to macro (/usr/include/bits/mathcalls.h: 61)
PGC-W-0266-Null argument to macro (/usr/include/bits/mathcalls.h: 61)
PGC-W-0266-Null argument to macro (/usr/include/bits/mathcalls.h: 64)
PGC-W-0266-Null argument to macro (/usr/include/bits/mathcalls.h: 64)
PGC-W-0266-Null argument to macro (/usr/include/bits/mathcalls.h: 64)
PGC-W-0266-Null argument to macro (/usr/include/bits/mathcalls.h: 64)
PGC-W-0266-Null argument to macro (/usr/include/bits/mathcalls.h: 64)
PGC-W-0266-Null argument to macro (/usr/include/bits/mathcalls.h: 64)
PGC-W-0266-Null argument to macro (/usr/include/bits/mathcalls.h: 64)
PGC-W-0266-Null argument to macro (/usr/include/bits/mathcalls.h: 64)
PGC-W-0266-Null argument to macro (/usr/include/bits/mathcalls.h: 66)
PGC-W-0266-Null argument to macro (/usr/include/bits/mathcalls.h: 66)
PGC-W-0266-Null argument to macro (/usr/include/bits/mathcalls.h: 66)
PGC-W-0266-Null argument to macro (/usr/include/bits/mathcalls.h: 66)
PGC-W-0266-Null argument to macro (/usr/include/bits/mathcalls.h: 66)
PGC-W-0266-Null argument to macro (/usr/include/bits/mathcalls.h: 66)
PGC-W-0266-Null argument to macro (/usr/include/bits/mathcalls.h: 66)
PGC-W-0266-Null argument to macro (/usr/include/bits/mathcalls.h: 66)
PGC-W-0266-Null argument to macro (/usr/include/bits/mathcalls.h: 68)
PGC-W-0266-Null argument to macro (/usr/include/bits/mathcalls.h: 68)
PGC-W-0266-Null argument to macro (/usr/include/bits/mathcalls.h: 68)
PGC-W-0266-Null argument to macro (/usr/include/bits/mathcalls.h: 68)
PGC-W-0266-Null argument to macro (/usr/include/bits/mathcalls.h: 68)
PGC-W-0266-Null argument to macro (/usr/include/bits/mathcalls.h: 68)
PGC-W-0266-Null argument to macro (/usr/include/bits/mathcalls.h: 68)
PGC-W-0266-Null argument to macro (/usr/include/bits/mathcalls.h: 68)
PGC-W-0266-Null argument to macro (/usr/include/bits/mathcalls.h: 73)
PGC-W-0266-Null argument to macro (/usr/include/bits/mathcalls.h: 73)
PGC-W-0266-Null argument to macro (/usr/include/bits/mathcalls.h: 73)
PGC-W-0266-Null argument to macro (/usr/include/bits/mathcalls.h: 73)
PGC-W-0266-Null argument to macro (/usr/include/bits/mathcalls.h: 73)
PGC-W-0266-Null argument to macro (/usr/include/bits/mathcalls.h: 73)
PGC-W-0266-Null argument to macro (/usr/include/bits/mathcalls.h: 73)
PGC-W-0266-Null argument to macro (/usr/include/bits/mathcalls.h: 73)
PGC-W-0266-Null argument to macro (/usr/include/bits/mathcalls.h: 75)
PGC-W-0266-Null argument to macro (/usr/include/bits/mathcalls.h: 75)
PGC-W-0266-Null argument to macro (/usr/include/bits/mathcalls.h: 75)
PGC-W-0266-Null argument to macro (/usr/include/bits/mathcalls.h: 75)
PGC-W-0266-Null argument to macro (/usr/include/bits/mathcalls.h: 75)
PGC-W-0266-Null argument to macro (/usr/include/bits/mathcalls.h: 75)
PGC-W-0266-Null argument to macro (/usr/include/bits/mathcalls.h: 75)
PGC-W-0266-Null argument to macro (/usr/include/bits/mathcalls.h: 75)
PGC-W-0266-Null argument to macro (/usr/include/bits/mathcalls.h: 77)
PGC-W-0266-Null argument to macro (/usr/include/bits/mathcalls.h: 77)
PGC-W-0266-Null argument to macro (/usr/include/bits/mathcalls.h: 77)
PGC-W-0266-Null argument to macro (/usr/include/bits/mathcalls.h: 77)
PGC-W-0266-Null argument to macro (/usr/include/bits/mathcalls.h: 77)
PGC-W-0266-Null argument to macro (/usr/include/bits/mathcalls.h: 77)
PGC-W-0266-Null argument to macro (/usr/include/bits/mathcalls.h: 77)
PGC-W-0266-Null argument to macro (/usr/include/bits/mathcalls.h: 77)
PGC-W-0266-Null argument to macro (/usr/include/bits/mathcalls.h: 101)
PGC-W-0266-Null argument to macro (/usr/include/bits/mathcalls.h: 101)
PGC-W-0266-Null argument to macro (/usr/include/bits/mathcalls.h: 101)
PGC-W-0266-Null argument to macro (/usr/include/bits/mathcalls.h: 101)
PGC-W-0266-Null argument to macro (/usr/include/bits/mathcalls.h: 101)
PGC-W-0266-Null argument to macro (/usr/include/bits/mathcalls.h: 101)
PGC-W-0266-Null argument to macro (/usr/include/bits/mathcalls.h: 101)
PGC-W-0266-Null argument to macro (/usr/include/bits/mathcalls.h: 101)
PGC-W-0266-Null argument to macro (/usr/include/bits/mathcalls.h: 104)
PGC-W-0266-Null argument to macro (/usr/include/bits/mathcalls.h: 104)
PGC-W-0266-Null argument to macro (/usr/include/bits/mathcalls.h: 104)
PGC-W-0266-Null argument to macro (/usr/include/bits/mathcalls.h: 104)
PGC-W-0266-Null argument to macro (/usr/include/bits/mathcalls.h: 104)
PGC-W-0266-Null argument to macro (/usr/include/bits/mathcalls.h: 104)
PGC-W-0266-Null argument to macro (/usr/include/bits/mathcalls.h: 104)
PGC-W-0266-Null argument to macro (/usr/include/bits/mathcalls.h: 104)
PGC-W-0266-Null argument to macro (/usr/include/bits/mathcalls.h: 107)
PGC-W-0266-Null argument to macro (/usr/include/bits/mathcalls.h: 107)
PGC-W-0266-Null argument to macro (/usr/include/bits/mathcalls.h: 107)
PGC-W-0266-Null argument to macro (/usr/include/bits/mathcalls.h: 107)
PGC-W-0266-Null argument to macro (/usr/include/bits/mathcalls.h: 107)
PGC-W-0266-Null argument to macro (/usr/include/bits/mathcalls.h: 107)
PGC-W-0266-Null argument to macro (/usr/include/bits/mathcalls.h: 107)
PGC-W-0266-Null argument to macro (/usr/include/bits/mathcalls.h: 107)
PGC-W-0266-Null argument to macro (/usr/include/bits/mathcalls.h: 110)
PGC-W-0266-Null argument to macro (/usr/include/bits/mathcalls.h: 110)
PGC-W-0266-Null argument to macro (/usr/include/bits/mathcalls.h: 110)
PGC-W-0266-Null argument to macro (/usr/include/bits/mathcalls.h: 110)
PGC-W-0266-Null argument to macro (/usr/include/bits/mathcalls.h: 110)
PGC-W-0266-Null argument to macro (/usr/include/bits/mathcalls.h: 110)
PGC-W-0266-Null argument to macro (/usr/include/bits/mathcalls.h: 110)
PGC-W-0266-Null argument to macro (/usr/include/bits/mathcalls.h: 110)
PGC-W-0266-Null argument to macro (/usr/include/bits/mathcalls.h: 113)
PGC-W-0266-Null argument to macro (/usr/include/bits/mathcalls.h: 113)
PGC-W-0266-Null argument to macro (/usr/include/bits/mathcalls.h: 113)
PGC-W-0266-Null argument to macro (/usr/include/bits/mathcalls.h: 113)
PGC-W-0266-Null argument to macro (/usr/include/bits/mathcalls.h: 113)
PGC-W-0266-Null argument to macro (/usr/include/bits/mathcalls.h: 113)
PGC-W-0266-Null argument to macro (/usr/include/bits/mathcalls.h: 113)
PGC-W-0266-Null argument to macro (/usr/include/bits/mathcalls.h: 113)
PGC-W-0266-Null argument to macro (/usr/include/bits/mathcalls.h: 116)
PGC-W-0266-Null argument to macro (/usr/include/bits/mathcalls.h: 116)
PGC-W-0266-Null argument to macro (/usr/include/bits/mathcalls.h: 116)
PGC-W-0266-Null argument to macro (/usr/include/bits/mathcalls.h: 116)
PGC-W-0266-Null argument to macro (/usr/include/bits/mathcalls.h: 116)
PGC-W-0266-Null argument to macro (/usr/include/bits/mathcalls.h: 116)
PGC-W-0266-Null argument to macro (/usr/include/bits/mathcalls.h: 116)
PGC-W-0266-Null argument to macro (/usr/include/bits/mathcalls.h: 116)
PGC-W-0266-Null argument to macro (/usr/include/bits/mathcalls.h: 154)
PGC-W-0266-Null argument to macro (/usr/include/bits/mathcalls.h: 154)
PGC-W-0266-Null argument to macro (/usr/include/bits/mathcalls.h: 154)
PGC-W-0266-Null argument to macro (/usr/include/bits/mathcalls.h: 154)
PGC-W-0266-Null argument to macro (/usr/include/bits/mathcalls.h: 154)
PGC-W-0266-Null argument to macro (/usr/include/bits/mathcalls.h: 154)
PGC-W-0266-Null argument to macro (/usr/include/bits/mathcalls.h: 154)
PGC-W-0266-Null argument to macro (/usr/include/bits/mathcalls.h: 154)
PGC-W-0266-Null argument to macro (/usr/include/bits/mathcalls.h: 157)
PGC-W-0266-Null argument to macro (/usr/include/bits/mathcalls.h: 157)
PGC-W-0266-Null argument to macro (/usr/include/bits/mathcalls.h: 157)
PGC-W-0266-Null argument to macro (/usr/include/bits/mathcalls.h: 157)
PGC-W-0266-Null argument to macro (/usr/include/bits/mathcalls.h: 157)
PGC-W-0266-Null argument to macro (/usr/include/bits/mathcalls.h: 157)
PGC-W-0266-Null argument to macro (/usr/include/bits/mathcalls.h: 157)
PGC-W-0266-Null argument to macro (/usr/include/bits/mathcalls.h: 157)
PGC-W-0266-Null argument to macro (/usr/include/bits/mathcalls.h: 179)
PGC-W-0266-Null argument to macro (/usr/include/bits/mathcalls.h: 179)
PGC-W-0266-Null argument to macro (/usr/include/bits/mathcalls.h: 179)
PGC-W-0266-Null argument to macro (/usr/include/bits/mathcalls.h: 179)
PGC-W-0266-Null argument to macro (/usr/include/bits/mathcalls.h: 179)
PGC-W-0266-Null argument to macro (/usr/include/bits/mathcalls.h: 179)
PGC-W-0266-Null argument to macro (/usr/include/bits/mathcalls.h: 179)
PGC-W-0266-Null argument to macro (/usr/include/bits/mathcalls.h: 179)
PGC-W-0266-Null argument to macro (/usr/include/bits/mathcalls.h: 182)
PGC-W-0266-Null argument to macro (/usr/include/bits/mathcalls.h: 182)
PGC-W-0266-Null argument to macro (/usr/include/bits/mathcalls.h: 182)
PGC-W-0266-Null argument to macro (/usr/include/bits/mathcalls.h: 182)
PGC-W-0266-Null argument to macro (/usr/include/bits/mathcalls.h: 182)
PGC-W-0266-Null argument to macro (/usr/include/bits/mathcalls.h: 182)
PGC-W-0266-Null argument to macro (/usr/include/bits/mathcalls.h: 182)
PGC-W-0266-Null argument to macro (/usr/include/bits/mathcalls.h: 182)
PGC-W-0266-Null argument to macro (/usr/include/bits/mathcalls.h: 185)
PGC-W-0266-Null argument to macro (/usr/include/bits/mathcalls.h: 185)
PGC-W-0266-Null argument to macro (/usr/include/bits/mathcalls.h: 185)
PGC-W-0266-Null argument to macro (/usr/include/bits/mathcalls.h: 185)
PGC-W-0266-Null argument to macro (/usr/include/bits/mathcalls.h: 185)
PGC-W-0266-Null argument to macro (/usr/include/bits/mathcalls.h: 185)
PGC-W-0266-Null argument to macro (/usr/include/bits/mathcalls.h: 185)
PGC-W-0266-Null argument to macro (/usr/include/bits/mathcalls.h: 185)
PGC-W-0266-Null argument to macro (/usr/include/bits/mathcalls.h: 188)
PGC-W-0266-Null argument to macro (/usr/include/bits/mathcalls.h: 188)
PGC-W-0266-Null argument to macro (/usr/include/bits/mathcalls.h: 188)
PGC-W-0266-Null argument to macro (/usr/include/bits/mathcalls.h: 188)
PGC-W-0266-Null argument to macro (/usr/include/bits/mathcalls.h: 188)
PGC-W-0266-Null argument to macro (/usr/include/bits/mathcalls.h: 188)
PGC-W-0266-Null argument to macro (/usr/include/bits/mathcalls.h: 188)
PGC-W-0266-Null argument to macro (/usr/include/bits/mathcalls.h: 188)
PGC-W-0266-Null argument to macro (/usr/include/bits/mathcalls.h: 193)
PGC-W-0266-Null argument to macro (/usr/include/bits/mathcalls.h: 193)
PGC-W-0266-Null argument to macro (/usr/include/bits/mathcalls.h: 193)
PGC-W-0266-Null argument to macro (/usr/include/bits/mathcalls.h: 196)
PGC-W-0266-Null argument to macro (/usr/include/bits/mathcalls.h: 196)
PGC-W-0266-Null argument to macro (/usr/include/bits/mathcalls.h: 196)
PGC-W-0266-Null argument to macro (/usr/include/bits/mathcalls.h: 231)
PGC-W-0266-Null argument to macro (/usr/include/bits/mathcalls.h: 231)
PGC-W-0266-Null argument to macro (/usr/include/bits/mathcalls.h: 231)
PGC-W-0153-Struct or union _IO_2_1_stderr_ has incomplete type (cs_maillage_grd.c: 338)
PGC-W-0153-Struct or union _IO_2_1_stdout_ has incomplete type (cs_maillage_grd.c: 337)
PGC-W-0153-Struct or union _IO_2_1_stdin_ has incomplete type (cs_maillage_grd.c: 336)
PGC/x86-64 Linux/x86-64 6.2-5: compilation completed with warnings
cs_maillage_select.c
mpicc   -I/home/saturne/Saturne/opt/bft-1.0.2/arch/Linux/include -I/home/saturne/Saturne/opt/fvm-0.6.1/arch/Linux/include   -I/home/saturne/Saturne/opt/libxml2-2.6.19/include/libxml2 -D_POSIX_SOURCE -D_CS_HAVE_MPI  -D_CS_HAVE_SOCKET  -D_CS_HAVE_XML     -DNDEBUG  -Xa -Ktrap=fp   -O1  -c cs_maillage_select.c
cs_maillage_solcom.c
mpicc   -I/home/saturne/Saturne/opt/bft-1.0.2/arch/Linux/include -I/home/saturne/Saturne/opt/fvm-0.6.1/arch/Linux/include   -I/home/saturne/Saturne/opt/libxml2-2.6.19/include/libxml2 -D_POSIX_SOURCE -D_CS_HAVE_MPI  -D_CS_HAVE_SOCKET  -D_CS_HAVE_XML     -DNDEBUG  -Xa -Ktrap=fp   -O1  -c cs_maillage_solcom.c
cs_main.c
mpicc   -I/home/saturne/Saturne/opt/bft-1.0.2/arch/Linux/include -I/home/saturne/Saturne/opt/fvm-0.6.1/arch/Linux/include   -I/home/saturne/Saturne/opt/libxml2-2.6.19/include/libxml2 -D_POSIX_SOURCE -D_CS_HAVE_MPI  -D_CS_HAVE_SOCKET  -D_CS_HAVE_XML     -DNDEBUG  -Xa -Ktrap=fp   -O1  -c cs_main.c
PGC-W-0153-Struct or union _IO_2_1_stderr_ has incomplete type (cs_main.c: 338)
PGC-W-0153-Struct or union _IO_2_1_stdout_ has incomplete type (cs_main.c: 337)
PGC-W-0153-Struct or union _IO_2_1_stdin_ has incomplete type (cs_main.c: 336)
PGC/x86-64 Linux/x86-64 6.2-5: compilation completed with warnings
cs_mesh_quality.c
mpicc   -I/home/saturne/Saturne/opt/bft-1.0.2/arch/Linux/include -I/home/saturne/Saturne/opt/fvm-0.6.1/arch/Linux/include   -I/home/saturne/Saturne/opt/libxml2-2.6.19/include/libxml2 -D_POSIX_SOURCE -D_CS_HAVE_MPI  -D_CS_HAVE_SOCKET  -D_CS_HAVE_XML     -DNDEBUG  -Xa -Ktrap=fp   -O1  -c cs_mesh_quality.c
PGC-W-0266-Null argument to macro (/usr/include/bits/mathcalls.h: 55)
PGC-W-0266-Null argument to macro (/usr/include/bits/mathcalls.h: 55)
PGC-W-0266-Null argument to macro (/usr/include/bits/mathcalls.h: 55)
PGC-W-0266-Null argument to macro (/usr/include/bits/mathcalls.h: 55)
PGC-W-0266-Null argument to macro (/usr/include/bits/mathcalls.h: 55)
PGC-W-0266-Null argument to macro (/usr/include/bits/mathcalls.h: 55)
PGC-W-0266-Null argument to macro (/usr/include/bits/mathcalls.h: 55)
PGC-W-0266-Null argument to macro (/usr/include/bits/mathcalls.h: 55)
PGC-W-0266-Null argument to macro (/usr/include/bits/mathcalls.h: 57)
PGC-W-0266-Null argument to macro (/usr/include/bits/mathcalls.h: 57)
PGC-W-0266-Null argument to macro (/usr/include/bits/mathcalls.h: 57)
PGC-W-0266-Null argument to macro (/usr/include/bits/mathcalls.h: 57)
PGC-W-0266-Null argument to macro (/usr/include/bits/mathcalls.h: 57)
PGC-W-0266-Null argument to macro (/usr/include/bits/mathcalls.h: 57)
PGC-W-0266-Null argument to macro (/usr/include/bits/mathcalls.h: 57)
PGC-W-0266-Null argument to macro (/usr/include/bits/mathcalls.h: 57)
PGC-W-0266-Null argument to macro (/usr/include/bits/mathcalls.h: 59)
PGC-W-0266-Null argument to macro (/usr/include/bits/mathcalls.h: 59)
PGC-W-0266-Null argument to macro (/usr/include/bits/mathcalls.h: 59)
PGC-W-0266-Null argument to macro (/usr/include/bits/mathcalls.h: 59)
PGC-W-0266-Null argument to macro (/usr/include/bits/mathcalls.h: 59)
PGC-W-0266-Null argument to macro (/usr/include/bits/mathcalls.h: 59)
PGC-W-0266-Null argument to macro (/usr/include/bits/mathcalls.h: 59)
PGC-W-0266-Null argument to macro (/usr/include/bits/mathcalls.h: 59)
PGC-W-0266-Null argument to macro (/usr/include/bits/mathcalls.h: 61)
PGC-W-0266-Null argument to macro (/usr/include/bits/mathcalls.h: 61)
PGC-W-0266-Null argument to macro (/usr/include/bits/mathcalls.h: 61)
PGC-W-0266-Null argument to macro (/usr/include/bits/mathcalls.h: 61)
PGC-W-0266-Null argument to macro (/usr/include/bits/mathcalls.h: 61)
PGC-W-0266-Null argument to macro (/usr/include/bits/mathcalls.h: 61)
PGC-W-0266-Null argument to macro (/usr/include/bits/mathcalls.h: 61)
PGC-W-0266-Null argument to macro (/usr/include/bits/mathcalls.h: 61)
PGC-W-0266-Null argument to macro (/usr/include/bits/mathcalls.h: 64)
PGC-W-0266-Null argument to macro (/usr/include/bits/mathcalls.h: 64)
PGC-W-0266-Null argument to macro (/usr/include/bits/mathcalls.h: 64)
PGC-W-0266-Null argument to macro (/usr/include/bits/mathcalls.h: 64)
PGC-W-0266-Null argument to macro (/usr/include/bits/mathcalls.h: 64)
PGC-W-0266-Null argument to macro (/usr/include/bits/mathcalls.h: 64)
[...]
PGC-W-0266-Null argument to macro (/usr/include/bits/mathcalls.h: 154)
PGC-W-0266-Null argument to macro (/usr/include/bits/mathcalls.h: 154)
PGC-W-0266-Null argument to macro (/usr/include/bits/mathcalls.h: 154)
PGC-W-0266-Null argument to macro (/usr/include/bits/mathcalls.h: 154)
PGC-W-0266-Null argument to macro (/usr/include/bits/mathcalls.h: 157)
PGC-W-0266-Null argument to macro (/usr/include/bits/mathcalls.h: 157)
PGC-W-0266-Null argument to macro (/usr/include/bits/mathcalls.h: 157)
PGC-W-0266-Null argument to macro (/usr/include/bits/mathcalls.h: 157)
PGC-W-0266-Null argument to macro (/usr/include/bits/mathcalls.h: 157)
PGC-W-0266-Null argument to macro (/usr/include/bits/mathcalls.h: 157)
PGC-W-0266-Null argument to macro (/usr/include/bits/mathcalls.h: 157)
PGC-W-0266-Null argument to macro (/usr/include/bits/mathcalls.h: 157)
PGC-W-0266-Null argument to macro (/usr/include/bits/mathcalls.h: 179)
PGC-W-0266-Null argument to macro (/usr/include/bits/mathcalls.h: 179)
PGC-W-0266-Null argument to macro (/usr/include/bits/mathcalls.h: 179)
PGC-W-0266-Null argument to macro (/usr/include/bits/mathcalls.h: 179)
PGC-W-0266-Null argument to macro (/usr/include/bits/mathcalls.h: 179)
PGC-W-0266-Null argument to macro (/usr/include/bits/mathcalls.h: 179)
PGC-W-0266-Null argument to macro (/usr/include/bits/mathcalls.h: 179)
PGC-W-0266-Null argument to macro (/usr/include/bits/mathcalls.h: 179)
PGC-W-0266-Null argument to macro (/usr/include/bits/mathcalls.h: 182)
PGC-W-0266-Null argument to macro (/usr/include/bits/mathcalls.h: 182)
PGC-W-0266-Null argument to macro (/usr/include/bits/mathcalls.h: 182)
PGC-W-0266-Null argument to macro (/usr/include/bits/mathcalls.h: 182)
PGC-W-0266-Null argument to macro (/usr/include/bits/mathcalls.h: 182)
PGC-W-0266-Null argument to macro (/usr/include/bits/mathcalls.h: 182)
PGC-W-0266-Null argument to macro (/usr/include/bits/mathcalls.h: 182)
PGC-W-0266-Null argument to macro (/usr/include/bits/mathcalls.h: 182)
PGC-W-0266-Null argument to macro (/usr/include/bits/mathcalls.h: 185)
PGC-W-0266-Null argument to macro (/usr/include/bits/mathcalls.h: 185)
PGC-W-0266-Null argument to macro (/usr/include/bits/mathcalls.h: 185)
PGC-W-0266-Null argument to macro (/usr/include/bits/mathcalls.h: 185)
PGC-W-0266-Null argument to macro (/usr/include/bits/mathcalls.h: 185)
PGC-W-0266-Null argument to macro (/usr/include/bits/mathcalls.h: 185)
PGC-W-0266-Null argument to macro (/usr/include/bits/mathcalls.h: 185)
PGC-W-0266-Null argument to macro (/usr/include/bits/mathcalls.h: 185)
PGC-W-0266-Null argument to macro (/usr/include/bits/mathcalls.h: 188)
PGC-W-0266-Null argument to macro (/usr/include/bits/mathcalls.h: 188)
PGC-W-0266-Null argument to macro (/usr/include/bits/mathcalls.h: 188)
PGC-W-0266-Null argument to macro (/usr/include/bits/mathcalls.h: 188)
PGC-W-0266-Null argument to macro (/usr/include/bits/mathcalls.h: 188)
PGC-W-0266-Null argument to macro (/usr/include/bits/mathcalls.h: 188)
PGC-W-0266-Null argument to macro (/usr/include/bits/mathcalls.h: 188)
PGC-W-0266-Null argument to macro (/usr/include/bits/mathcalls.h: 188)
PGC-W-0266-Null argument to macro (/usr/include/bits/mathcalls.h: 193)
PGC-W-0266-Null argument to macro (/usr/include/bits/mathcalls.h: 193)
PGC-W-0266-Null argument to macro (/usr/include/bits/mathcalls.h: 193)
PGC-W-0266-Null argument to macro (/usr/include/bits/mathcalls.h: 196)
PGC-W-0266-Null argument to macro (/usr/include/bits/mathcalls.h: 196)
PGC-W-0266-Null argument to macro (/usr/include/bits/mathcalls.h: 196)
PGC-W-0266-Null argument to macro (/usr/include/bits/mathcalls.h: 231)
PGC-W-0266-Null argument to macro (/usr/include/bits/mathcalls.h: 231)
PGC-W-0266-Null argument to macro (/usr/include/bits/mathcalls.h: 231)
PGC-W-0153-Struct or union _IO_2_1_stderr_ has incomplete type (cs_lagrang.c: 338)
PGC-W-0153-Struct or union _IO_2_1_stdout_ has incomplete type (cs_lagrang.c: 337)
PGC-W-0153-Struct or union _IO_2_1_stdin_ has incomplete type (cs_lagrang.c: 336)
PGC/x86-64 Linux/x86-64 6.2-5: compilation completed with warnings
diverv.F
mpif77 -D_CS_HAVE_XML     -Ktrap=fp -fastsse -O -Mnobounds -c diverv.F
enslag.F
mpif77 -D_CS_HAVE_XML     -Ktrap=fp -fastsse -O -Mnobounds -c enslag.F
enswaf.F
mpif77 -D_CS_HAVE_XML     -Ktrap=fp -fastsse -O -Mnobounds -c enswaf.F
lagcar.F
mpif77 -D_CS_HAVE_XML     -Ktrap=fp -fastsse -O -Mnobounds -c lagcar.F
lagcel.F
mpif77 -D_CS_HAVE_XML     -Ktrap=fp -fastsse -O -Mnobounds -c lagcel.F
lagcou.F
mpif77 -D_CS_HAVE_XML     -Ktrap=fp -fastsse -O -Mnobounds -c lagcou.F
lagdeb.F
mpif77 -D_CS_HAVE_XML     -Ktrap=fp -fastsse -O -Mnobounds -c lagdeb.F
lageli.F
mpif77 -D_CS_HAVE_XML     -Ktrap=fp -fastsse -O -Mnobounds -c lageli.F
lagent.F
mpif77 -D_CS_HAVE_XML     -Ktrap=fp -fastsse -O -Mnobounds -c lagent.F
lageqp.F
mpif77 -D_CS_HAVE_XML     -Ktrap=fp -fastsse -O -Mnobounds -c lageqp.F
lagerr.F
mpif77 -D_CS_HAVE_XML     -Ktrap=fp -fastsse -O -Mnobounds -c lagerr.F
lages1.F
mpif77 -D_CS_HAVE_XML     -Ktrap=fp -fastsse -O -Mnobounds -c lages1.F
lages2.F
mpif77 -D_CS_HAVE_XML     -Ktrap=fp -fastsse -O -Mnobounds -c lages2.F
lagesp.F
mpif77 -D_CS_HAVE_XML     -Ktrap=fp -fastsse -O -Mnobounds -c lagesp.F
laggra.F
mpif77 -D_CS_HAVE_XML     -Ktrap=fp -fastsse -O -Mnobounds -c laggra.F
lagich.F
mpif77 -D_CS_HAVE_XML     -Ktrap=fp -fastsse -O -Mnobounds -c lagich.F
lagidp.F
mpif77 -D_CS_HAVE_XML     -Ktrap=fp -fastsse -O -Mnobounds -c lagidp.F
lagimp.F
mpif77 -D_CS_HAVE_XML     -Ktrap=fp -fastsse -O -Mnobounds -c lagimp.F
lagini.F
mpif77 -D_CS_HAVE_XML     -Ktrap=fp -fastsse -O -Mnobounds -c lagini.F
lagipn.F
mpif77 -D_CS_HAVE_XML     -Ktrap=fp -fastsse -O -Mnobounds -c lagipn.F
lagitf.F
mpif77 -D_CS_HAVE_XML     -Ktrap=fp -fastsse -O -Mnobounds -c lagitf.F
lagitg.F
mpif77 -D_CS_HAVE_XML     -Ktrap=fp -fastsse -O -Mnobounds -c lagitg.F
lagitp.F
mpif77 -D_CS_HAVE_XML     -Ktrap=fp -fastsse -O -Mnobounds -c lagitp.F
laglec.F
mpif77 -D_CS_HAVE_XML     -Ktrap=fp -fastsse -O -Mnobounds -c laglec.F
laglis.F
mpif77 -D_CS_HAVE_XML     -Ktrap=fp -fastsse -O -Mnobounds -c laglis.F
lagnew.F
mpif77 -D_CS_HAVE_XML     -Ktrap=fp -fastsse -O -Mnobounds -c lagnew.F
lagnwc.F
mpif77 -D_CS_HAVE_XML     -Ktrap=fp -fastsse -O -Mnobounds -c lagnwc.F
lagopt.F
mpif77 -D_CS_HAVE_XML     -Ktrap=fp -fastsse -O -Mnobounds -c lagopt.F
lagout.F
mpif77 -D_CS_HAVE_XML     -Ktrap=fp -fastsse -O -Mnobounds -c lagout.F
lagphy.F
mpif77 -D_CS_HAVE_XML     -Ktrap=fp -fastsse -O -Mnobounds -c lagphy.F
lagpoi.F
mpif77 -D_CS_HAVE_XML     -Ktrap=fp -fastsse -O -Mnobounds -c lagpoi.F
lagraf.F
mpif77 -D_CS_HAVE_XML     -Ktrap=fp -fastsse -O -Mnobounds -c lagraf.F
lagrus.F
mpif77 -D_CS_HAVE_XML     -Ktrap=fp -fastsse -O -Mnobounds -c lagrus.F
lagsta.F
mpif77 -D_CS_HAVE_XML     -Ktrap=fp -fastsse -O -Mnobounds -c lagsta.F
lagstf.F
mpif77 -D_CS_HAVE_XML     -Ktrap=fp -fastsse -O -Mnobounds -c lagstf.F
lagtri.F
mpif77 -D_CS_HAVE_XML     -Ktrap=fp -fastsse -O -Mnobounds -c lagtri.F
lagune.F
mpif77 -D_CS_HAVE_XML     -Ktrap=fp -fastsse -O -Mnobounds -c lagune.F
memla1.F
mpif77 -D_CS_HAVE_XML     -Ktrap=fp -fastsse -O -Mnobounds -c memla1.F
memla2.F
mpif77 -D_CS_HAVE_XML     -Ktrap=fp -fastsse -O -Mnobounds -c memla2.F
ouestu.F
mpif77 -D_CS_HAVE_XML     -Ktrap=fp -fastsse -O -Mnobounds -c ouestu.F
uslabo.F
mpif77 -D_CS_HAVE_XML     -Ktrap=fp -fastsse -O -Mnobounds -c uslabo.F
uslaed.F
mpif77 -D_CS_HAVE_XML     -Ktrap=fp -fastsse -O -Mnobounds -c uslaed.F
uslaen.F
mpif77 -D_CS_HAVE_XML     -Ktrap=fp -fastsse -O -Mnobounds -c uslaen.F
uslag1.F
mpif77 -D_CS_HAVE_XML     -Ktrap=fp -fastsse -O -Mnobounds -c uslag1.F
uslag2.F
mpif77 -D_CS_HAVE_XML     -Ktrap=fp -fastsse -O -Mnobounds -c uslag2.F
uslain.F
mpif77 -D_CS_HAVE_XML     -Ktrap=fp -fastsse -O -Mnobounds -c uslain.F
uslaru.F
mpif77 -D_CS_HAVE_XML     -Ktrap=fp -fastsse -O -Mnobounds -c uslaru.F
uslast.F
mpif77 -D_CS_HAVE_XML     -Ktrap=fp -fastsse -O -Mnobounds -c uslast.F
uslatc.F
mpif77 -D_CS_HAVE_XML     -Ktrap=fp -fastsse -O -Mnobounds -c uslatc.F
uslatp.F
mpif77 -D_CS_HAVE_XML     -Ktrap=fp -fastsse -O -Mnobounds -c uslatp.F
make[2]: Leaving directory `/home/saturne/Saturne/Noyau/ncs-1.3.d/build/Linux_CCRT/LAGR'
***  Compilation terminée

make[1]: Leaving directory `/home/saturne/Saturne/Noyau/ncs-1.3.d/build/Linux_CCRT/LAGR'
make[1]: Entering directory `/home/saturne/Saturne/Noyau/ncs-1.3.d/build/Linux_CCRT/LAGR'
***  Création de la librairie
***  Création de la librairie terminée

make[1]: Leaving directory `/home/saturne/Saturne/Noyau/ncs-1.3.d/build/Linux_CCRT/LAGR'
make[1]: Entering directory `/home/saturne/Saturne/Noyau/ncs-1.3.d/build/Linux_CCRT/LAGR'
***  Installation de la librairie
***  Installation de la librairie terminée

make[1]: Leaving directory `/home/saturne/Saturne/Noyau/ncs-1.3.d/build/Linux_CCRT/LAGR'
make[1]: Entering directory `/home/saturne/Saturne/Noyau/ncs-1.3.d/build/Linux_CCRT/LAGR'

make[1]: Leaving directory `/home/saturne/Saturne/Noyau/ncs-1.3.d/build/Linux_CCRT/LAGR'
   Generation du fichier resume
/home/saturne/Saturne/Noyau/ncs-1.3.d/build/Linux_CCRT/LAGR/.readmeLAGR
   Nettoyage avec MOD=LAGR OPT=
make[1]: Entering directory `/home/saturne/Saturne/Noyau/ncs-1.3.d/build/Linux_CCRT/LAGR'
***  "make" dans un répertoire de génération de la librairie
make[2]: Entering directory `/home/saturne/Saturne/Noyau/ncs-1.3.d/build/Linux_CCRT/LAGR'
make[2]: Leaving directory `/home/saturne/Saturne/Noyau/ncs-1.3.d/build/Linux_CCRT/LAGR'
make[1]: Leaving directory `/home/saturne/Saturne/Noyau/ncs-1.3.d/build/Linux_CCRT/LAGR'
[7m *** Fin de la construction de LAGR
[27m[m(B[!p[?3;4l[4l>[!p[?3;4l[4l>[7m
 *** Construction de RAYT sous Linux_CCRT
[27m[m(B[!p[?3;4l[4l>[!p[?3;4l[4l>   Generation du repertoire RAYT
   Lien sur le Makefile
   Lancement de make avec MOD=RAYT OPT=
make[1]: Entering directory `/home/saturne/Saturne/Noyau/ncs-1.3.d/build/Linux_CCRT/RAYT'

***  Compilation/lien Code_Saturne  version 1.3.d
***  Système Linux_CCRT

make[1]: Leaving directory `/home/saturne/Saturne/Noyau/ncs-1.3.d/build/Linux_CCRT/RAYT'
make[1]: Entering directory `/home/saturne/Saturne/Noyau/ncs-1.3.d/build/Linux_CCRT/RAYT'
***  "make" dans un répertoire de génération de la librairie
make[2]: Entering directory `/home/saturne/Saturne/Noyau/ncs-1.3.d/build/Linux_CCRT/RAYT'
make[2]: Leaving directory `/home/saturne/Saturne/Noyau/ncs-1.3.d/build/Linux_CCRT/RAYT'
make[1]: Leaving directory `/home/saturne/Saturne/Noyau/ncs-1.3.d/build/Linux_CCRT/RAYT'
make[1]: Entering directory `/home/saturne/Saturne/Noyau/ncs-1.3.d/build/Linux_CCRT/RAYT'
make[2]: Entering directory `/home/saturne/Saturne/Noyau/ncs-1.3.d/build/Linux_CCRT/RAYT'
make[2]: Leaving directory `/home/saturne/Saturne/Noyau/ncs-1.3.d/build/Linux_CCRT/RAYT'
make[2]: Entering directory `/home/saturne/Saturne/Noyau/ncs-1.3.d/build/Linux_CCRT/RAYT'
make[2]: Leaving directory `/home/saturne/Saturne/Noyau/ncs-1.3.d/build/Linux_CCRT/RAYT'
***  Compilation
make[2]: Entering directory `/home/saturne/Saturne/Noyau/ncs-1.3.d/build/Linux_CCRT/RAYT'
make[2]: Leaving directory `/home/saturne/Saturne/Noyau/ncs-1.3.d/build/Linux_CCRT/RAYT'
make[2]: Entering directory `/home/saturne/Saturne/Noyau/ncs-1.3.d/build/Linux_CCRT/RAYT'
make[2]: Nothing to be done for `privdependobj'.
make[2]: Leaving directory `/home/saturne/Saturne/Noyau/ncs-1.3.d/build/Linux_CCRT/RAYT'
make[2]: Entering directory `/home/saturne/Saturne/Noyau/ncs-1.3.d/build/Linux_CCRT/RAYT'
make[2]: Leaving directory `/home/saturne/Saturne/Noyau/ncs-1.3.d/build/Linux_CCRT/RAYT'
make[2]: Entering directory `/home/saturne/Saturne/Noyau/ncs-1.3.d/build/Linux_CCRT/RAYT'
make[2]: Nothing to be done for `privdependobj'.
make[2]: Leaving directory `/home/saturne/Saturne/Noyau/ncs-1.3.d/build/Linux_CCRT/RAYT'
make[2]: Entering directory `/home/saturne/Saturne/Noyau/ncs-1.3.d/build/Linux_CCRT/RAYT'
memra1.F
mpif77 -D_CS_HAVE_XML     -Ktrap=fp -fastsse -O -Mnobounds -c memra1.F
memra2.F
mpif77 -D_CS_HAVE_XML     -Ktrap=fp -fastsse -O -Mnobounds -c memra2.F
memra3.F
mpif77 -D_CS_HAVE_XML     -Ktrap=fp -fastsse -O -Mnobounds -c memra3.F
raybrd.F
mpif77 -D_CS_HAVE_XML     -Ktrap=fp -fastsse -O -Mnobounds -c raybrd.F
raycli.F
mpif77 -D_CS_HAVE_XML     -Ktrap=fp -fastsse -O -Mnobounds -c raycli.F
raydak.F
mpif77 -D_CS_HAVE_XML     -Ktrap=fp -fastsse -O -Mnobounds -c raydak.F
raydir.F
mpif77 -D_CS_HAVE_XML     -Ktrap=fp -fastsse -O -Mnobounds -c raydir.F
raydom.F
mpif77 -D_CS_HAVE_XML     -Ktrap=fp -fastsse -O -Mnobounds -c raydom.F
rayens.F
mpif77 -D_CS_HAVE_XML     -Ktrap=fp -fastsse -O -Mnobounds -c rayens.F
raylec.F
mpif77 -D_CS_HAVE_XML     -Ktrap=fp -fastsse -O -Mnobounds -c raylec.F
rayopt.F
mpif77 -D_CS_HAVE_XML     -Ktrap=fp -fastsse -O -Mnobounds -c rayopt.F
rayout.F
mpif77 -D_CS_HAVE_XML     -Ktrap=fp -fastsse -O -Mnobounds -c rayout.F
raypar.F
mpif77 -D_CS_HAVE_XML     -Ktrap=fp -fastsse -O -Mnobounds -c raypar.F
raypun.F
mpif77 -D_CS_HAVE_XML     -Ktrap=fp -fastsse -O -Mnobounds -c raypun.F
raysca.F
mpif77 -D_CS_HAVE_XML     -Ktrap=fp -fastsse -O -Mnobounds -c raysca.F
raysol.F
mpif77 -D_CS_HAVE_XML     -Ktrap=fp -fastsse -O -Mnobounds -c raysol.F
rmodak.F
mpif77 -D_CS_HAVE_XML     -Ktrap=fp -fastsse -O -Mnobounds -c rmodak.F
usray1.F
mpif77 -D_CS_HAVE_XML     -Ktrap=fp -fastsse -O -Mnobounds -c usray1.F
usray2.F
mpif77 -D_CS_HAVE_XML     -Ktrap=fp -fastsse -O -Mnobounds -c usray2.F
usray3.F
mpif77 -D_CS_HAVE_XML     -Ktrap=fp -fastsse -O -Mnobounds -c usray3.F
usray4.F
mpif77 -D_CS_HAVE_XML     -Ktrap=fp -fastsse -O -Mnobounds -c usray4.F
make[2]: Leaving directory `/home/saturne/Saturne/Noyau/ncs-1.3.d/build/Linux_CCRT/RAYT'
***  Compilation terminée

make[1]: Leaving directory `/home/saturne/Saturne/Noyau/ncs-1.3.d/build/Linux_CCRT/RAYT'
make[1]: Entering directory `/home/saturne/Saturne/Noyau/ncs-1.3.d/build/Linux_CCRT/RAYT'
***  Création de la librairie
***  Création de la librairie terminée

make[1]: Leaving directory `/home/saturne/Saturne/Noyau/ncs-1.3.d/build/Linux_CCRT/RAYT'
make[1]: Entering directory `/home/saturne/Saturne/Noyau/ncs-1.3.d/build/Linux_CCRT/RAYT'
***  Installation de la librairie
***  Installation de la librairie terminée

make[1]: Leaving directory `/home/saturne/Saturne/Noyau/ncs-1.3.d/build/Linux_CCRT/RAYT'
make[1]: Entering directory `/home/saturne/Saturne/Noyau/ncs-1.3.d/build/Linux_CCRT/RAYT'

make[1]: Leaving directory `/home/saturne/Saturne/Noyau/ncs-1.3.d/build/Linux_CCRT/RAYT'
   Generation du fichier resume
/home/saturne/Saturne/Noyau/ncs-1.3.d/build/Linux_CCRT/RAYT/.readmeRAYT
   Nettoyage avec MOD=RAYT OPT=
make[1]: Entering directory `/home/saturne/Saturne/Noyau/ncs-1.3.d/build/Linux_CCRT/RAYT'
***  "make" dans un répertoire de génération de la librairie
make[2]: Entering directory `/home/saturne/Saturne/Noyau/ncs-1.3.d/build/Linux_CCRT/RAYT'
make[2]: Leaving directory `/home/saturne/Saturne/Noyau/ncs-1.3.d/build/Linux_CCRT/RAYT'
make[1]: Leaving directory `/home/saturne/Saturne/Noyau/ncs-1.3.d/build/Linux_CCRT/RAYT'
[7m *** Fin de la construction de RAYT
[27m[m(B[!p[?3;4l[4l>[!p[?3;4l[4l>[7m
 *** Construction de MATI sous Linux_CCRT
[27m[m(B[!p[?3;4l[4l>[!p[?3;4l[4l>   Generation du repertoire MATI
   Lien sur le Makefile
   Lancement de make avec MOD=MATI OPT=
make[1]: Entering directory `/home/saturne/Saturne/Noyau/ncs-1.3.d/build/Linux_CCRT/MATI'

***  Compilation/lien Code_Saturne  version 1.3.d
***  Système Linux_CCRT

make[1]: Leaving directory `/home/saturne/Saturne/Noyau/ncs-1.3.d/build/Linux_CCRT/MATI'
make[1]: Entering directory `/home/saturne/Saturne/Noyau/ncs-1.3.d/build/Linux_CCRT/MATI'
***  "make" dans un répertoire de génération de la librairie
make[2]: Entering directory `/home/saturne/Saturne/Noyau/ncs-1.3.d/build/Linux_CCRT/MATI'
make[2]: Leaving directory `/home/saturne/Saturne/Noyau/ncs-1.3.d/build/Linux_CCRT/MATI'
make[1]: Leaving directory `/home/saturne/Saturne/Noyau/ncs-1.3.d/build/Linux_CCRT/MATI'
make[1]: Entering directory `/home/saturne/Saturne/Noyau/ncs-1.3.d/build/Linux_CCRT/MATI'
make[2]: Entering directory `/home/saturne/Saturne/Noyau/ncs-1.3.d/build/Linux_CCRT/MATI'
make[2]: Leaving directory `/home/saturne/Saturne/Noyau/ncs-1.3.d/build/Linux_CCRT/MATI'
make[2]: Entering directory `/home/saturne/Saturne/Noyau/ncs-1.3.d/build/Linux_CCRT/MATI'
make[2]: Leaving directory `/home/saturne/Saturne/Noyau/ncs-1.3.d/build/Linux_CCRT/MATI'
***  Compilation
make[2]: Entering directory `/home/saturne/Saturne/Noyau/ncs-1.3.d/build/Linux_CCRT/MATI'
make[2]: Leaving directory `/home/saturne/Saturne/Noyau/ncs-1.3.d/build/Linux_CCRT/MATI'
make[2]: Entering directory `/home/saturne/Saturne/Noyau/ncs-1.3.d/build/Linux_CCRT/MATI'
make[2]: Nothing to be done for `privdependobj'.
make[2]: Leaving directory `/home/saturne/Saturne/Noyau/ncs-1.3.d/build/Linux_CCRT/MATI'
make[2]: Entering directory `/home/saturne/Saturne/Noyau/ncs-1.3.d/build/Linux_CCRT/MATI'
make[2]: Leaving directory `/home/saturne/Saturne/Noyau/ncs-1.3.d/build/Linux_CCRT/MATI'
make[2]: Entering directory `/home/saturne/Saturne/Noyau/ncs-1.3.d/build/Linux_CCRT/MATI'
make[2]: Nothing to be done for `privdependobj'.
make[2]: Leaving directory `/home/saturne/Saturne/Noyau/ncs-1.3.d/build/Linux_CCRT/MATI'
make[2]: Entering directory `/home/saturne/Saturne/Noyau/ncs-1.3.d/build/Linux_CCRT/MATI'
memmat.F
mpif77 -D_CS_HAVE_XML     -Ktrap=fp -fastsse -O -Mnobounds -c memmat.F
mtimpi.F
mpif77 -D_CS_HAVE_XML     -Ktrap=fp -fastsse -O -Mnobounds -c mtimpi.F
mtini1.F
mpif77 -D_CS_HAVE_XML     -Ktrap=fp -fastsse -O -Mnobounds -c mtini1.F
mtkpdc.F
mpif77 -D_CS_HAVE_XML     -Ktrap=fp -fastsse -O -Mnobounds -c mtkpdc.F
mtphyv.F
mpif77 -D_CS_HAVE_XML     -Ktrap=fp -fastsse -O -Mnobounds -c mtphyv.F
mtproj.F
mpif77 -D_CS_HAVE_XML     -Ktrap=fp -fastsse -O -Mnobounds -c mtproj.F
mttsns.F
mpif77 -D_CS_HAVE_XML     -Ktrap=fp -fastsse -O -Mnobounds -c mttsns.F
mttssc.F
mpif77 -D_CS_HAVE_XML     -Ktrap=fp -fastsse -O -Mnobounds -c mttssc.F
mttycl.F
mpif77 -D_CS_HAVE_XML     -Ktrap=fp -fastsse -O -Mnobounds -c mttycl.F
make[2]: Leaving directory `/home/saturne/Saturne/Noyau/ncs-1.3.d/build/Linux_CCRT/MATI'
***  Compilation terminée

make[1]: Leaving directory `/home/saturne/Saturne/Noyau/ncs-1.3.d/build/Linux_CCRT/MATI'
make[1]: Entering directory `/home/saturne/Saturne/Noyau/ncs-1.3.d/build/Linux_CCRT/MATI'
***  Création de la librairie
***  Création de la librairie terminée

make[1]: Leaving directory `/home/saturne/Saturne/Noyau/ncs-1.3.d/build/Linux_CCRT/MATI'
make[1]: Entering directory `/home/saturne/Saturne/Noyau/ncs-1.3.d/build/Linux_CCRT/MATI'
***  Installation de la librairie
***  Installation de la librairie terminée

make[1]: Leaving directory `/home/saturne/Saturne/Noyau/ncs-1.3.d/build/Linux_CCRT/MATI'
make[1]: Entering directory `/home/saturne/Saturne/Noyau/ncs-1.3.d/build/Linux_CCRT/MATI'

make[1]: Leaving directory `/home/saturne/Saturne/Noyau/ncs-1.3.d/build/Linux_CCRT/MATI'
   Generation du fichier resume
/home/saturne/Saturne/Noyau/ncs-1.3.d/build/Linux_CCRT/MATI/.readmeMATI
   Nettoyage avec MOD=MATI OPT=
make[1]: Entering directory `/home/saturne/Saturne/Noyau/ncs-1.3.d/build/Linux_CCRT/MATI'
***  "make" dans un répertoire de génération de la librairie
make[2]: Entering directory `/home/saturne/Saturne/Noyau/ncs-1.3.d/build/Linux_CCRT/MATI'
make[2]: Leaving directory `/home/saturne/Saturne/Noyau/ncs-1.3.d/build/Linux_CCRT/MATI'
make[1]: Leaving directory `/home/saturne/Saturne/Noyau/ncs-1.3.d/build/Linux_CCRT/MATI'
[7m *** Fin de la construction de MATI
[27m[m(B[!p[?3;4l[4l>[!p[?3;4l[4l>[7m
 *** Verification des acces
[27m[m(B[!p[?3;4l[4l>[!p[?3;4l[4l>chmod: cannot access `bin/compil_stat.exe': No such file or directory
[7m *** Fin de la verification des acces
[27m[m(B[!p[?3;4l[4l>[!p[?3;4l[4l>[1m    Fin de l'installation des bibliotheques BASE CFBL COGZ CPLV ELEC LAGR RAYT MATI
    Version de Code_Saturne /home/saturne/Saturne/Noyau/ncs-1.3.d

[27m[m(B[!p[?3;4l[4l>[!p[?3;4l[4l>