[1m
    Installation des bibliotheques BASE CFBL COGZ CPLV ELEC LAGR RAYT MATI sous OSF1
    Version de Code_Saturne /home/saturne/Saturne/Noyau/ncs-1.3.d
       ==================================================================  
[m[m[m[?7h[?1;4l
[0m[7m
 *** Repertoire de base CS_HOME = /home/saturne/Saturne/Noyau/ncs-1.3.d
[m[m[m[?7h[?1;4l
[0m[7m
 *** Protection prealable
[m[m[m[?7h[?1;4l
[0m[7m
 *** Construction de BASE sous OSF1
[m[m[m[?7h[?1;4l
[0m   Generation du repertoire BASE
   Lien sur le Makefile
   Lancement de make avec MOD=BASE OPT=

***  Compilation/lien Code_Saturne  version 1.3.d
***  Système OSF1

***  "make" dans un répertoire de génération de la librairie
***  Compilation
gradco.F
f90 -D_CS_HAVE_XML     -warn declarations -std  -O -c gradco.F
gradrc.F
f90 -D_CS_HAVE_XML     -warn declarations -std  -O -c gradrc.F
jacobi.F
f90 -D_CS_HAVE_XML     -warn declarations -std  -O -c jacobi.F
prcpol.F
f90 -D_CS_HAVE_XML     -warn declarations -std  -O -c prcpol.F
promav.F
f90 -D_CS_HAVE_XML     -warn declarations -std  -O -c promav.F
prodsc.F
f90 -D_CS_HAVE_XML     -warn declarations -std  -O -c prodsc.F
prods2.F
f90 -D_CS_HAVE_XML     -warn declarations -std  -O -c prods2.F
prods3.F
f90 -D_CS_HAVE_XML     -warn declarations -std  -O -c prods3.F
cs_ale.c
cc   -I/home/saturne/Saturne/opt/bft-1.0.2/arch/OSF1/include -I/home/saturne/Saturne/opt/fvm-0.6.1/arch/OSF1/include -I/usr/include  -I/home/saturne/Saturne/opt/libxml2-2.6.19/include/libxml2 -D_OSF_SOURCE -D_CS_HAVE_MPI  -D_CS_HAVE_SOCKET  -D_CS_HAVE_XML     -DNDEBUG  -ansi_alias -std  -trapuv  -check -msg_enable alignment -msg_enable noansi  -msg_enable performance -portable -msg_enable c_to_cxx -O -arch host -tune host    -c cs_ale.c
cc: Info: cs_maillage.h, line 110: An additional 4 bytes of padding have been implicitly inserted prior to this member for proper alignment of this member. (strctpadding)
  cs_real_t  *coo_som;             /* Coordonnées des sommets */
--------------^
cc: Info: cs_maillage.h, line 178: An additional 4 bytes of padding have been implicitly inserted prior to this member for proper alignment of this member. (strctpadding)
  cs_int_t   *pos_grp;                /* Position de départ de chaque groupe
--------------^
cc: Info: cs_ale.c, line 70: The declaration of the function algrma_ has an empty parameter list.  If the function has parameters, they should be declared here; if it has no parameters, "void" should be specified in the parameter list. (noparmlist)
void CS_PROCF (algrma, ALGRMA)
-----^
cc: Info: cs_ale.c, line 9: Files included by this file are referenced.  However nothing else appears to be referenced from this file. (nestincl)
#include <assert.h>
-^
cc: Info: cs_ale.c, line 10: Files included by this file are referenced.  However nothing else appears to be referenced from this file. (nestincl)
#include <stdarg.h>
-^
cc: Info: cs_ale.c, line 12: This include directive does not contribute to the compilation, perhaps because the file has already been included. (unusedtop)
#include <stdlib.h>
-^
cc: Info: cs_ale.c, line 13: It is not necessary to include this file, if other unused include directives are removed. (unnecincl)
#include <string.h>
-^
cc: Info: cs_ale.c, line 18: This include directive does not contribute to the compilation, perhaps because the file has already been included. (unusedtop)
#include <bft_config.h>
-^
cc: Info: /home/saturne/Saturne/opt/bft-1.0.2/arch/OSF1/include/bft_mem.h, line 39: This nested include file appears to be unused. (unusedincl)
#    include <stddef.h>
-----^
cc: Info: /home/saturne/Saturne/opt/bft-1.0.2/arch/OSF1/include/bft_mem.h, line 49: This nested include file appears to be unused. (unusedincl)
#include <bft_config.h>
-^
cc: Info: /home/saturne/Saturne/opt/bft-1.0.2/arch/OSF1/include/bft_error.h, line 33: This nested include file appears to be unused. (unusedincl)
#include <stdarg.h>
-^
cc: Info: /home/saturne/Saturne/opt/bft-1.0.2/arch/OSF1/include/bft_error.h, line 37: This nested include file appears to be unused. (unusedincl)
#include <bft_config.h>
-^
cc: Info: cs_ale.c, line 20: This include directive does not contribute to the compilation, perhaps because the file has already been included. (unusedtop)
#include <bft_printf.h>
-^
cc: Info: /home/saturne/Saturne/opt/fvm-0.6.1/arch/OSF1/include/fvm_nodal.h, line 33: This nested include file appears to be unused. (unusedincl)
#include <fvm_defs.h>
-^
cc: Info: /home/saturne/Saturne/opt/fvm-0.6.1/arch/OSF1/include/fvm_nodal.h, line 34: This nested include file appears to be unused. (unusedincl)
#include <fvm_io_num.h>
-^
cc: Info: cs_ale.c, line 26: This include directive does not contribute to the compilation, perhaps because the file has already been included. (unusedtop)
#include <fvm_nodal_extract.h>
-^
cc: Info: cs_ale.c, line 27: This include directive does not contribute to the compilation, perhaps because the file has already been included. (unusedtop)
#include <fvm_writer.h>
-^
cc: Info: cs_maillage.h, line 18: This nested include file appears to be unused. (unusedincl)
#include "fvm_defs.h"
-^
cc: Info: cs_maillage.h, line 24: This nested include file appears to be unused. (unusedincl)
#include "cs_base.h"
-^
cc: Info: cs_perio.h, line 19: This nested include file appears to be unused. (unusedincl)
#include "cs_base.h"
-^
cc: Info: cs_parallel.h, line 12: This nested include file appears to be unused. (unusedincl)
#include <fvm_interface.h>
-^
cc: Info: cs_parallel.h, line 17: This nested include file appears to be unused. (unusedincl)
#include "cs_base.h"
-^
cc: Info: cs_maillage_grd.h, line 19: This nested include file appears to be unused. (unusedincl)
#include "cs_base.h"
-^
cc: Info: cs_maillage_grd.h, line 20: This nested include file appears to be unused. (unusedincl)
#include "cs_maillage.h"
-^
cc: Info: cs_ale.h, line 24: This nested include file appears to be unused. (unusedincl)
#include "cs_base.h"
-^
cs_base.c
cc   -I/home/saturne/Saturne/opt/bft-1.0.2/arch/OSF1/include -I/home/saturne/Saturne/opt/fvm-0.6.1/arch/OSF1/include -I/usr/include  -I/home/saturne/Saturne/opt/libxml2-2.6.19/include/libxml2 -D_OSF_SOURCE -D_CS_HAVE_MPI  -D_CS_HAVE_SOCKET  -D_CS_HAVE_XML     -DNDEBUG  -ansi_alias -std  -trapuv  -check -msg_enable alignment -msg_enable noansi  -msg_enable performance -portable -msg_enable c_to_cxx -O -arch host -tune host    -c cs_base.c
cc: Info: cs_base.c, line 357: In this statement, the value returned from the function "MPI_Initialized(...)" is not used - if this is intended, it should be cast to "void". (ignorecallval)
  MPI_Initialized(&flag);
--^
cc: Info: cs_base.c, line 359: In this statement, the value returned from the function "MPI_Init(...)" is not used - if this is intended, it should be cast to "void". (ignorecallval)
    MPI_Init(argc, argv);
----^
cc: Info: cs_base.c, line 371: In this statement, the value returned from the function "MPI_Comm_rank(...)" is not used - if this is intended, it should be cast to "void". (ignorecallval)
  MPI_Comm_rank(MPI_COMM_WORLD, &rang);
--^
cc: Info: cs_base.c, line 373: In this statement, the value returned from the function "MPI_Comm_split(...)" is not used - if this is intended, it should be cast to "void". (ignorecallval)
  MPI_Comm_split(MPI_COMM_WORLD, rang_deb, rang - rang_deb + 1,
--^
cc: Info: cs_base.c, line 376: In this statement, the value returned from the function "MPI_Comm_size(...)" is not used - if this is intended, it should be cast to "void". (ignorecallval)
  MPI_Comm_size(cs_glob_base_mpi_comm, &nbr);
--^
cc: Info: cs_base.c, line 377: In this statement, the value returned from the function "MPI_Comm_rank(...)" is not used - if this is intended, it should be cast to "void". (ignorecallval)
  MPI_Comm_rank(cs_glob_base_mpi_comm, &rang);
--^
cc: Info: cs_base.c, line 388: In this statement, the value returned from the function "MPI_Comm_size(...)" is not used - if this is intended, it should be cast to "void". (ignorecallval)
  MPI_Comm_size(MPI_COMM_WORLD, &nbr);
--^
cc: Info: cs_base.c, line 391: In this statement, the value returned from the function "MPI_Comm_free(...)" is not used - if this is intended, it should be cast to "void". (ignorecallval)
    MPI_Comm_free(&cs_glob_base_mpi_comm);
----^
cc: Info: cs_base.c, line 395: In this statement, the value returned from the function "MPI_Comm_free(...)" is not used - if this is intended, it should be cast to "void". (ignorecallval)
    MPI_Comm_free(&cs_glob_base_mpi_comm);
----^
cc: Info: cs_base.c, line 436: In this statement, the value returned from the function "bft_printf_flush(...)" is not used - if this is intended, it should be cast to "void". (ignorecallval)
    bft_printf_flush();
----^
cc: Info: cs_base.c, line 452: In this statement, the value returned from the function "MPI_Initialized(...)" is not used - if this is intended, it should be cast to "void". (ignorecallval)
    MPI_Initialized(&mpi_flag);
----^
cc: Info: cs_base.c, line 457: In this statement, the value returned from the function "MPI_Abort(...)" is not used - if this is intended, it should be cast to "void". (ignorecallval)
        MPI_Abort(MPI_COMM_WORLD, statut);
--------^
cc: Info: cs_base.c, line 461: In this statement, the value returned from the function "MPI_Barrier(...)" is not used - if this is intended, it should be cast to "void". (ignorecallval)
        MPI_Barrier(MPI_COMM_WORLD);
--------^
cc: Info: cs_base.c, line 462: In this statement, the value returned from the function "MPI_Finalize(...)" is not used - if this is intended, it should be cast to "void". (ignorecallval)
        MPI_Finalize();
--------^
cc: Info: cs_base.c, line 538: In this statement, the value returned from the function "sprintf(...)" is not used - if this is intended, it should be cast to "void". (ignorecallval)
        sprintf(nom_complet, "%s.%04d", nom_base, cs_glob_base_rang + 1);
--------^
cc: Info: cs_base.c, line 540: In this statement, the value returned from the function "strcpy(...)" is not used - if this is intended, it should be cast to "void". (ignorecallval)
        strcpy(nom_complet, nom_base);
--------^
cc: Info: cs_base.c, line 583: In this statement, the value returned from the function "bft_printf(...)" is not used - if this is intended, it should be cast to "void". (ignorecallval)
  bft_printf(_("\nBilan de l'occupation mémoire :\n\n"));
--^
cc: Info: cs_base.c, line 602: In this statement, the value returned from the function "MPI_Reduce(...)" is not used - if this is intended, it should be cast to "void". (ignorecallval)
    MPI_Reduce (ind_val, ind_min, 4, CS_MPI_INT, MPI_MIN,
----^
cc: Info: cs_base.c, line 604: In this statement, the value returned from the function "MPI_Reduce(...)" is not used - if this is intended, it should be cast to "void". (ignorecallval)
    MPI_Reduce (valreal, val_somme, 4, CS_MPI_REAL, MPI_SUM,
----^
cc: Info: cs_base.c, line 610: In this statement, the value returned from the function "MPI_Reduce(...)" is not used - if this is intended, it should be cast to "void". (ignorecallval)
    MPI_Reduce (&val_in, &val_min, 4, CS_MPI_REAL_INT, MPI_MINLOC,
----^
cc: Info: cs_base.c, line 612: In this statement, the value returned from the function "MPI_Reduce(...)" is not used - if this is intended, it should be cast to "void". (ignorecallval)
    MPI_Reduce (&val_in, &val_max, 4, CS_MPI_REAL_INT, MPI_MAXLOC,
----^
cc: Info: cs_base.c, line 652: In this statement, the value returned from the function "bft_printf(...)" is not used - if this is intended, it should be cast to "void". (ignorecallval)
      bft_printf (_("  %s %12.3f %co\n"),
------^
cc: Info: cs_base.c, line 657: In this statement, the value returned from the function "bft_printf(...)" is not used - if this is intended, it should be cast to "void". (ignorecallval)
        bft_printf (_("                             "
--------^
cc: Info: cs_base.c, line 660: In this statement, the value returned from the function "bft_printf(...)" is not used - if this is intended, it should be cast to "void". (ignorecallval)
        bft_printf (_("                             "
--------^
cc: Info: cs_base.c, line 696: In this statement, the value returned from the function "bft_printf(...)" is not used - if this is intended, it should be cast to "void". (ignorecallval)
  bft_printf(_("\nBilan des temps de calcul :\n"));
--^
cc: Info: cs_base.c, line 710: In this statement, the value returned from the function "bft_printf(...)" is not used - if this is intended, it should be cast to "void". (ignorecallval)
    bft_printf (_("\n  Temps CPU utilisateur : %12.3f s\n"),
----^
cc: Info: cs_base.c, line 712: In this statement, the value returned from the function "bft_printf(...)" is not used - if this is intended, it should be cast to "void". (ignorecallval)
    bft_printf (_("  Temps CPU système :     %12.3f s\n"),
----^
cc: Info: cs_base.c, line 717: In this statement, the value returned from the function "bft_printf(...)" is not used - if this is intended, it should be cast to "void". (ignorecallval)
    bft_printf (_("\n  Temps CPU :             %12.3f s\n"),
----^
cc: Info: cs_base.c, line 723: In this statement, the value returned from the function "MPI_Reduce(...)" is not used - if this is intended, it should be cast to "void". (ignorecallval)
    MPI_Reduce (&time_cpu, &time_cumul, 1, MPI_DOUBLE, MPI_SUM,
----^
cc: Info: cs_base.c, line 726: In this statement, the value returned from the function "bft_printf(...)" is not used - if this is intended, it should be cast to "void". (ignorecallval)
      bft_printf (_("  Temps CPU cumulé :      %12.3f s\n"),
------^
cc: Info: cs_base.c, line 738: In this statement, the value returned from the function "bft_printf(...)" is not used - if this is intended, it should be cast to "void". (ignorecallval)
    bft_printf (_("\n  Temps écoulé :          %12.3f s\n"),
----^
cc: Info: cs_base.c, line 741: In this statement, the value returned from the function "bft_printf(...)" is not used - if this is intended, it should be cast to "void". (ignorecallval)
    bft_printf (_("  Temps CPU / écoulé      %12.3f\n"),
----^
cc: Info: cs_base.c, line 783: In this statement, the value returned from the function "strcpy(...)" is not used - if this is intended, it should be cast to "void". (ignorecallval)
    strcpy(str_date, "");
----^
cc: Info: cs_base.c, line 789: In this statement, the value returned from the function "strcpy(...)" is not used - if this is intended, it should be cast to "void". (ignorecallval)
    strcpy(str_system  , sys_config.sysname );
----^
cc: Info: cs_base.c, line 790: In this statement, the value returned from the function "strcat(...)" is not used - if this is intended, it should be cast to "void". (ignorecallval)
    strcat(str_system  , " "                );
----^
cc: Info: cs_base.c, line 791: In this statement, the value returned from the function "strcat(...)" is not used - if this is intended, it should be cast to "void". (ignorecallval)
    strcat(str_system  , sys_config.release );
----^
cc: Info: cs_base.c, line 792: In this statement, the value returned from the function "strcpy(...)" is not used - if this is intended, it should be cast to "void". (ignorecallval)
    strcpy(str_machine , sys_config.nodename);
----^
cc: Info: cs_base.c, line 795: In this statement, the value returned from the function "strcpy(...)" is not used - if this is intended, it should be cast to "void". (ignorecallval)
    strcpy(str_system  , "");
----^
cc: Info: cs_base.c, line 796: In this statement, the value returned from the function "strcpy(...)" is not used - if this is intended, it should be cast to "void". (ignorecallval)
    strcpy(str_machine , "");
----^
cc: Info: cs_base.c, line 803: In this statement, the value returned from the function "sprintf(...)" is not used - if this is intended, it should be cast to "void". (ignorecallval)
    sprintf(str_ram, "%lu", (unsigned long)ram);
----^
cc: Info: cs_base.c, line 816: In this statement, the value returned from the function "strncpy(...)" is not used - if this is intended, it should be cast to "void". (ignorecallval)
    strncpy(str_user, pwd_user->pw_name, _CS_INFO_SYS_STR_SIZE);
----^
cc: Info: cs_base.c, line 827: In this statement, the value returned from the function "strcat(...)" is not used - if this is intended, it should be cast to "void". (ignorecallval)
        strcat(str_user, " (");
--------^
cc: Info: cs_base.c, line 828: In this statement, the value returned from the function "strncpy(...)" is not used - if this is intended, it should be cast to "void". (ignorecallval)
        strncpy(str_user + l_user + 2, pwd_user->pw_gecos, l_info);
--------^
cc: Info: cs_base.c, line 837: In this statement, the value returned from the function "strcpy(...)" is not used - if this is intended, it should be cast to "void". (ignorecallval)
    strcpy(str_user, "");
----^
cc: Info: cs_base.c, line 842: In this statement, the value returned from the function "strcpy(...)" is not used - if this is intended, it should be cast to "void". (ignorecallval)
    strcpy(str_directory, "");
----^
cc: Info: cs_base.c, line 848: In this statement, the value returned from the function "bft_printf(...)" is not used - if this is intended, it should be cast to "void". (ignorecallval)
  bft_printf("\n%s\n", _("Configuration locale du cas :\n"));
--^
cc: Info: cs_base.c, line 850: In this statement, the value returned from the function "bft_printf(...)" is not used - if this is intended, it should be cast to "void". (ignorecallval)
  bft_printf("  %-19s%s\n", _("Date :"), str_date);
--^
cc: Info: cs_base.c, line 852: In this statement, the value returned from the function "bft_printf(...)" is not used - if this is intended, it should be cast to "void". (ignorecallval)
  bft_printf("  %-19s%s\n", _("Système :"),     str_system);
--^
cc: Info: cs_base.c, line 853: In this statement, the value returned from the function "bft_printf(...)" is not used - if this is intended, it should be cast to "void". (ignorecallval)
  bft_printf("  %-19s%s\n", _("Machine :"),     str_machine);
--^
cc: Info: cs_base.c, line 854: In this statement, the value returned from the function "bft_printf(...)" is not used - if this is intended, it should be cast to "void". (ignorecallval)
  bft_printf("  %-19s%s\n", _("Processeur :"),  bft_sys_info_cpu());
--^
cc: Info: cs_base.c, line 855: In this statement, the unsigned expression "ram" is being tested to see if it is greater than zero.  This might not be what you intended. (questcompare2)
  if (ram > 0)
------^
cc: Info: cs_base.c, line 856: In this statement, the value returned from the function "bft_printf(...)" is not used - if this is intended, it should be cast to "void". (ignorecallval)
    bft_printf("  %-19s%s\n", _("Mémoire :"),   str_ram);
----^
cc: Info: cs_base.c, line 857: In this statement, the value returned from the function "bft_printf(...)" is not used - if this is intended, it should be cast to "void". (ignorecallval)
  bft_printf("  %-19s%s\n", _("Utilisateur :"), str_user);
--^
cc: Info: cs_base.c, line 858: In this statement, the value returned from the function "bft_printf(...)" is not used - if this is intended, it should be cast to "void". (ignorecallval)
  bft_printf("  %-19s%s\n", _("Répertoire :"),  str_directory);
--^
cc: Info: cs_base.c, line 860: In this statement, the value returned from the function "bft_printf(...)" is not used - if this is intended, it should be cast to "void". (ignorecallval)
  bft_printf("\n");
--^
cc: Info: cs_base.c, line 892: In this statement, the value returned from the function "bft_printf(...)" is not used - if this is intended, it should be cast to "void". (ignorecallval)
  bft_printf(_("\n\nCode_Saturne: %s:%d : Avertissement\n"),
--^
cc: Info: cs_base.c, line 1099: In this statement, the value returned from the function "strcpy(...)" is not used - if this is intended, it should be cast to "void". (ignorecallval)
      strcpy(nom_fic_err, _("erreur"));
------^
cc: Info: cs_base.c, line 1101: In this statement, the value returned from the function "sprintf(...)" is not used - if this is intended, it should be cast to "void". (ignorecallval)
      sprintf(nom_fic_err, _("erreur_n%04d"), cs_glob_base_rang + 1);
------^
cc: Info: cs_base.c, line 1103: In this statement, the value returned from the function "freopen(...)" is not used - if this is intended, it should be cast to "void". (ignorecallval)
    freopen(nom_fic_err, "w", stderr);
----^
cc: Info: cs_base.c, line 1109: In this statement, the value returned from the function "vfprintf(...)" is not used - if this is intended, it should be cast to "void". (ignorecallval)
  vfprintf(stderr, format, arg_ptr);
--^
cc: Info: cs_base.c, line 1141: In this statement, the value returned from the function "bft_printf_flush(...)" is not used - if this is intended, it should be cast to "void". (ignorecallval)
  bft_printf_flush();
--^
cc: Info: cs_base.c, line 1162: In this statement, the value returned from the function "MPI_Initialized(...)" is not used - if this is intended, it should be cast to "void". (ignorecallval)
    MPI_Initialized(&mpi_flag);
----^
cc: Info: cs_base.c, line 1165: In this statement, the value returned from the function "MPI_Abort(...)" is not used - if this is intended, it should be cast to "void". (ignorecallval)
      MPI_Abort(cs_glob_base_mpi_comm, EXIT_FAILURE);
------^
cc: Info: cs_base.c, line 1200: In this statement, the unsigned expression "nbr" is being tested to see if it is greater than zero.  This might not be what you intended. (questcompare2)
    if (nbr > 0)
--------^
cc: Info: cs_base.c, line 1212: In this statement, the value returned from the function "strcpy(...)" is not used - if this is intended, it should be cast to "void". (ignorecallval)
        strcpy(s_func_buf, "?");
--------^
cc: Info: cs_base.c, line 1215: In this statement, the value returned from the function "strncpy(...)" is not used - if this is intended, it should be cast to "void". (ignorecallval)
        strncpy(s_func_buf + 1, s_func, 64);
--------^
cc: Info: cs_base.c, line 1216: In this statement, the value returned from the function "strcat(...)" is not used - if this is intended, it should be cast to "void". (ignorecallval)
        strcat(s_func_buf, ">");
--------^
cc: Info: cs_base.c, line 1226: In this statement, the value returned from the function "bft_backtrace_destroy(...)" is not used - if this is intended, it should be cast to "void". (ignorecallval)
    bft_backtrace_destroy(tr);
----^
cc: Info: cs_base.c, line 1228: In this statement, the unsigned expression "nbr" is being tested to see if it is greater than zero.  This might not be what you intended. (questcompare2)
    if (nbr > 0)
--------^
cc: Info: cs_base.c, line 1241: In this statement, the value returned from the function "bft_printf_flush(...)" is not used - if this is intended, it should be cast to "void". (ignorecallval)
  bft_printf_flush();
--^
cc: Info: cs_base.c, line 1292: In this statement, the value returned from the function "MPI_Initialized(...)" is not used - if this is intended, it should be cast to "void". (ignorecallval)
    MPI_Initialized (&mpi_flag);
----^
cc: Info: cs_base.c, line 1294: In this statement, the value returned from the function "MPI_Abort(...)" is not used - if this is intended, it should be cast to "void". (ignorecallval)
      MPI_Abort (MPI_COMM_WORLD, EXIT_FAILURE);
------^
cc: Info: cs_base.c, line 1327: In this statement, the value returned from the function "MPI_Comm_free(...)" is not used - if this is intended, it should be cast to "void". (ignorecallval)
    MPI_Comm_free(&cs_glob_base_mpi_comm);
----^
cc: Info: cs_base.c, line 20: This include directive does not contribute to the compilation, perhaps because the file has already been included. (unusedtop)
#include <unistd.h>      /* getcwd(), getpid() */
-^
cc: Info: /home/saturne/Saturne/opt/bft-1.0.2/arch/OSF1/include/bft_backtrace.h, line 33: This nested include file appears to be unused. (unusedincl)
#include <stdarg.h>
-^
cc: Info: /home/saturne/Saturne/opt/bft-1.0.2/arch/OSF1/include/bft_backtrace.h, line 37: This nested include file appears to be unused. (unusedincl)
#include <bft_config.h>
-^
cc: Info: /home/saturne/Saturne/opt/bft-1.0.2/arch/OSF1/include/bft_mem_usage.h, line 39: This nested include file appears to be unused. (unusedincl)
#    include <stddef.h>
-----^
cc: Info: /home/saturne/Saturne/opt/bft-1.0.2/arch/OSF1/include/bft_mem_usage.h, line 49: This nested include file appears to be unused. (unusedincl)
#include <bft_config.h>
-^
cc: Info: /home/saturne/Saturne/opt/bft-1.0.2/arch/OSF1/include/bft_mem.h, line 39: This nested include file appears to be unused. (unusedincl)
#    include <stddef.h>
-----^
cc: Info: /home/saturne/Saturne/opt/bft-1.0.2/arch/OSF1/include/bft_mem.h, line 49: This nested include file appears to be unused. (unusedincl)
#include <bft_config.h>
-^
cc: Info: /home/saturne/Saturne/opt/bft-1.0.2/arch/OSF1/include/bft_error.h, line 33: This nested include file appears to be unused. (unusedincl)
#include <stdarg.h>
-^
cc: Info: /home/saturne/Saturne/opt/bft-1.0.2/arch/OSF1/include/bft_error.h, line 37: This nested include file appears to be unused. (unusedincl)
#include <bft_config.h>
-^
cc: Info: /home/saturne/Saturne/opt/bft-1.0.2/arch/OSF1/include/bft_printf.h, line 33: This nested include file appears to be unused. (unusedincl)
#include <stdarg.h>
-^
cc: Info: /home/saturne/Saturne/opt/bft-1.0.2/arch/OSF1/include/bft_printf.h, line 37: This nested include file appears to be unused. (unusedincl)
#include <bft_config.h>
-^
cc: Info: /home/saturne/Saturne/opt/bft-1.0.2/arch/OSF1/include/bft_sys_info.h, line 39: This nested include file appears to be unused. (unusedincl)
#    include <stddef.h>
-----^
cc: Info: /home/saturne/Saturne/opt/bft-1.0.2/arch/OSF1/include/bft_sys_info.h, line 49: This nested include file appears to be unused. (unusedincl)
#include <bft_config.h>
-^
cc: Info: /home/saturne/Saturne/opt/bft-1.0.2/arch/OSF1/include/bft_timer.h, line 35: This nested include file appears to be unused. (unusedincl)
#include <bft_config.h>
-^
cc: Info: /home/saturne/Saturne/opt/fvm-0.6.1/arch/OSF1/include/fvm_defs.h, line 31: This nested include file appears to be unused. (unusedincl)
#include <fvm_config.h>
-^
cc: Info: cs_base.h, line 17: This nested include file appears to be unused. (unusedincl)
#include <mpi.h>
-^
cs_comm.c
cc   -I/home/saturne/Saturne/opt/bft-1.0.2/arch/OSF1/include -I/home/saturne/Saturne/opt/fvm-0.6.1/arch/OSF1/include -I/usr/include  -I/home/saturne/Saturne/opt/libxml2-2.6.19/include/libxml2 -D_OSF_SOURCE -D_CS_HAVE_MPI  -D_CS_HAVE_SOCKET  -D_CS_HAVE_XML     -DNDEBUG  -ansi_alias -std  -trapuv  -check -msg_enable alignment -msg_enable noansi  -msg_enable performance -portable -msg_enable c_to_cxx -O -arch host -tune host    -c cs_comm.c
cc: Info: /home/saturne/Saturne/opt/bft-1.0.2/arch/OSF1/include/bft_file.h, line 92: In this declaration, type "long long" is a new feature in C99. (longlongtype)
typedef long long bft_file_off_t;
--------^
cc: Info: cs_comm.h, line 98: An additional 3 bytes of padding have been implicitly inserted prior to this member for proper alignment of this member. (strctpadding)
  cs_int_t   nbr_elt;                          /* Nombre d'éléments           */
-------------^
cc: Info: cs_comm.c, line 424: In this statement, the value returned from the function "sprintf(...)" is not used - if this is intended, it should be cast to "void". (ignorecallval)
  sprintf(comm->nom, "%s_vers_%s", nom_emetteur, nom_recepteur);
--^
cc: Info: cs_comm.c, line 427: In this statement, the value returned from the function "sprintf(...)" is not used - if this is intended, it should be cast to "void". (ignorecallval)
    sprintf(comm->nom + strlen(comm->nom), ".%04d", numero);
----^
cc: Info: cs_comm.c, line 467: In this statement, the value returned from the function "bft_printf(...)" is not used - if this is intended, it should be cast to "void". (ignorecallval)
  bft_printf(_("\n  Ouverture de la communication :  %s ..."), comm->nom);
--^
cc: Info: cs_comm.c, line 468: In this statement, the value returned from the function "bft_printf_flush(...)" is not used - if this is intended, it should be cast to "void". (ignorecallval)
  bft_printf_flush();
--^
cc: Info: cs_comm.c, line 503: In this statement, the value returned from the function "sprintf(...)" is not used - if this is intended, it should be cast to "void". (ignorecallval)
        sprintf(nom_fic, "%s_n%04d_vers_%s",
--------^
cc: Info: cs_comm.c, line 506: In this statement, the value returned from the function "sprintf(...)" is not used - if this is intended, it should be cast to "void". (ignorecallval)
        sprintf(nom_fic, "%s_vers_%s_n%04d",
--------^
cc: Info: cs_comm.c, line 513: In this statement, the value returned from the function "sprintf(...)" is not used - if this is intended, it should be cast to "void". (ignorecallval)
        sprintf(nom_fic + strlen(nom_fic), ".%04d", numero);
--------^
cc: Info: cs_comm.c, line 535: In this statement, the value returned from the function "bft_printf(...)" is not used - if this is intended, it should be cast to "void". (ignorecallval)
  bft_printf(_(" [ok]\n"));
--^
cc: Info: cs_comm.c, line 536: In this statement, the value returned from the function "bft_printf_flush(...)" is not used - if this is intended, it should be cast to "void". (ignorecallval)
  bft_printf_flush();
--^
cc: Info: cs_comm.c, line 555: In this statement, the value returned from the function "bft_printf(...)" is not used - if this is intended, it should be cast to "void". (ignorecallval)
  bft_printf(_("\n  Fermeture de la communication :  %s\n"), comm->nom);
--^
cc: Info: cs_comm.c, line 556: In this statement, the value returned from the function "bft_printf_flush(...)" is not used - if this is intended, it should be cast to "void". (ignorecallval)
  bft_printf_flush();
--^
cc: Info: cs_comm.c, line 620: In this statement, the value returned from the function "sprintf(...)" is not used - if this is intended, it should be cast to "void". (ignorecallval)
  sprintf(nom_rub_ecr,
--^
cc: Info: cs_comm.c, line 652: In this statement, the value returned from the function "sprintf(...)" is not used - if this is intended, it should be cast to "void". (ignorecallval)
    sprintf(nom_typ_elt_ecr,
----^
cc: Info: cs_comm.c, line 711: In this statement, the value returned from the function "bft_file_flush(...)" is not used - if this is intended, it should be cast to "void". (ignorecallval)
    bft_file_flush(comm->fic);
----^
cc: Info: cs_comm.c, line 1179: In this statement, the value returned from the function "memset(...)" is not used - if this is intended, it should be cast to "void". (ignorecallval)
  memset((char *) &addr_sock, 0, long_sock);
--^
cc: Info: cs_comm.c, line 1202: In this statement, the value returned from the function "memcpy(...)" is not used - if this is intended, it should be cast to "void". (ignorecallval)
  memcpy(ent_hote->h_addr, &addr_sock.sin_addr, ent_hote->h_length);
--^
cc: Info: cs_comm.c, line 1247: In this statement, the value returned from the function "bft_printf(...)" is not used - if this is intended, it should be cast to "void". (ignorecallval)
    bft_printf(_("\n  Communication possible sur %s, port %d\n\n"),
----^
cc: Info: cs_comm.c, line 1249: In this statement, the value returned from the function "bft_printf_flush(...)" is not used - if this is intended, it should be cast to "void". (ignorecallval)
    bft_printf_flush();
----^
cc: Info: cs_comm.c, line 1253: In this statement, the value returned from the function "memcpy(...)" is not used - if this is intended, it should be cast to "void". (ignorecallval)
  memcpy(cs_glob_comm_sock_nom_hote, chaine, CS_LOC_COMM_LNG_HOSTNAME);
--^
cc: Info: cs_comm.c, line 1272: In this statement, the value returned from the function "close(...)" is not used - if this is intended, it should be cast to "void". (ignorecallval)
  close(cs_glob_comm_socket);
--^
cc: Info: cs_comm.c, line 1274: In this statement, the value returned from the function "bft_printf(...)" is not used - if this is intended, it should be cast to "void". (ignorecallval)
  bft_printf(_("\nFermeture du socket ...\t [ok]\n"));
--^
cc: Info: cs_comm.c, line 1275: In this statement, the value returned from the function "bft_printf_flush(...)" is not used - if this is intended, it should be cast to "void". (ignorecallval)
  bft_printf_flush();
--^
cc: Info: cs_comm.c, line 1396: In this statement, the value returned from the function "bft_file_flush(...)" is not used - if this is intended, it should be cast to "void". (ignorecallval)
    bft_file_flush(comm->fic);
----^
cc: Info: cs_comm.c, line 1481: In this statement, the value returned from the function "MPI_Comm_size(...)" is not used - if this is intended, it should be cast to "void". (ignorecallval)
  MPI_Comm_size(MPI_COMM_WORLD, &comm_size);
--^
cc: Info: cs_comm.c, line 1537: In this statement, the value returned from the function "strncpy(...)" is not used - if this is intended, it should be cast to "void". (ignorecallval)
    strncpy(chaine_magique_comm, chaine_magique, lng_chaine_magique);
----^
cc: Info: cs_comm.c, line 1626: In this statement, the value returned from the function "MPI_Unpack(...)" is not used - if this is intended, it should be cast to "void". (ignorecallval)
    MPI_Unpack(buffer, CS_COMM_MPI_PACK_SIZE, &position, num_rub,
----^
cc: Info: cs_comm.c, line 1630: In this statement, the value returned from the function "MPI_Unpack(...)" is not used - if this is intended, it should be cast to "void". (ignorecallval)
      MPI_Unpack(buffer, CS_COMM_MPI_PACK_SIZE, &position, nom_rub,
------^
cc: Info: cs_comm.c, line 1633: In this statement, the value returned from the function "MPI_Unpack(...)" is not used - if this is intended, it should be cast to "void". (ignorecallval)
    MPI_Unpack(buffer, CS_COMM_MPI_PACK_SIZE, &position, nbr_elt_rub,
----^
cc: Info: cs_comm.c, line 1637: In this statement, the value returned from the function "MPI_Unpack(...)" is not used - if this is intended, it should be cast to "void". (ignorecallval)
      MPI_Unpack(buffer, CS_COMM_MPI_PACK_SIZE, &position, nom_typ_elt,
------^
cc: Info: cs_comm.c, line 1651: In this statement, the value returned from the function "MPI_Pack(...)" is not used - if this is intended, it should be cast to "void". (ignorecallval)
    MPI_Pack(num_rub, 1, CS_MPI_INT, buffer, CS_COMM_MPI_PACK_SIZE,
----^
cc: Info: cs_comm.c, line 1655: In this statement, the value returned from the function "MPI_Pack(...)" is not used - if this is intended, it should be cast to "void". (ignorecallval)
      MPI_Pack(nom_rub, CS_COMM_LNG_NOM_RUB, MPI_CHAR, buffer,
------^
cc: Info: cs_comm.c, line 1658: In this statement, the value returned from the function "MPI_Pack(...)" is not used - if this is intended, it should be cast to "void". (ignorecallval)
    MPI_Pack(nbr_elt_rub, 1, CS_MPI_INT, buffer, CS_COMM_MPI_PACK_SIZE,
----^
cc: Info: cs_comm.c, line 1662: In this statement, the value returned from the function "MPI_Pack(...)" is not used - if this is intended, it should be cast to "void". (ignorecallval)
      MPI_Pack(nom_typ_elt, CS_COMM_LNG_NOM_TYPE_ELT, MPI_CHAR, buffer,
------^
cc: Info: cs_comm.c, line 1897: In this statement, the value returned from the function "MPI_Error_string(...)" is not used - if this is intended, it should be cast to "void". (ignorecallval)
  MPI_Error_string(error, buffer, &buffer_len);
--^
cc: Info: cs_comm.c, line 1999: In this statement, the value returned from the function "sprintf(...)" is not used - if this is intended, it should be cast to "void". (ignorecallval)
      sprintf(str_taille, "%3d", lng_hostname);
------^
cc: Info: cs_comm.c, line 2016: In this statement, the value returned from the function "sprintf(...)" is not used - if this is intended, it should be cast to "void". (ignorecallval)
        sprintf(str_taille, "%5d", tab_num_port[ind]);
--------^
cc: Info: cs_comm.c, line 2341: In this statement, the value returned from the function "bft_printf(...)" is not used - if this is intended, it should be cast to "void". (ignorecallval)
    bft_printf(_("\nMessage reçu sur \"%s\" :\n"), comm->nom);
----^
cc: Info: cs_comm.c, line 2345: In this statement, the value returned from the function "bft_printf(...)" is not used - if this is intended, it should be cast to "void". (ignorecallval)
    bft_printf(_("\nMessage envoyé sur \"%s\" :\n"), comm->nom);
----^
cc: Info: cs_comm.c, line 2353: In this statement, the value returned from the function "bft_printf_flush(...)" is not used - if this is intended, it should be cast to "void". (ignorecallval)
  bft_printf_flush();
--^
cc: Info: cs_comm.c, line 2375: In this statement, the value returned from the function "strncpy(...)" is not used - if this is intended, it should be cast to "void". (ignorecallval)
  strncpy(nom_rub_ecr, nom_rub,  CS_COMM_LNG_NOM_RUB);
--^
cc: Info: cs_comm.c, line 2378: In this statement, the value returned from the function "bft_printf(...)" is not used - if this is intended, it should be cast to "void". (ignorecallval)
  bft_printf(_("    numéro de rubrique    : %d\n"
--^
cc: Info: cs_comm.c, line 2403: In this statement, the value returned from the function "bft_printf(...)" is not used - if this is intended, it should be cast to "void". (ignorecallval)
    bft_printf(_("    nom du type d'élément : \"%s\"\n"), nom_typ);
----^
cc: Info: cs_comm.c, line 2407: In this statement, the value returned from the function "bft_printf_flush(...)" is not used - if this is intended, it should be cast to "void". (ignorecallval)
  bft_printf_flush();
--^
cc: Info: cs_comm.c, line 2434: In this statement, the value returned from the function "bft_printf(...)" is not used - if this is intended, it should be cast to "void". (ignorecallval)
    bft_printf(_("    %d premiers et derniers éléments :\n"), echo);
----^
cc: Info: cs_comm.c, line 2438: In this statement, the value returned from the function "bft_printf(...)" is not used - if this is intended, it should be cast to "void". (ignorecallval)
    bft_printf(_("    éléments :\n"));
----^
cc: Info: cs_comm.c, line 2450: In this statement, the value returned from the function "bft_printf(...)" is not used - if this is intended, it should be cast to "void". (ignorecallval)
          bft_printf("    %10d : %12d\n", ind + 1, *(elt_rub_int + ind));
----------^
cc: Info: cs_comm.c, line 2459: In this statement, the value returned from the function "bft_printf(...)" is not used - if this is intended, it should be cast to "void". (ignorecallval)
          bft_printf("    %10d : %12.5e\n", ind + 1, *(elt_rub_real + ind));
----------^
cc: Info: cs_comm.c, line 2469: In this statement, the value returned from the function "bft_printf(...)" is not used - if this is intended, it should be cast to "void". (ignorecallval)
            bft_printf("    %10d : '%c'\n", ind + 1, *(elt_rub_char + ind));
------------^
cc: Info: cs_comm.c, line 2471: In this statement, the value returned from the function "bft_printf(...)" is not used - if this is intended, it should be cast to "void". (ignorecallval)
            bft_printf("    %10d : '\\0'\n", ind + 1);
------------^
cc: Info: cs_comm.c, line 2485: In this statement, the value returned from the function "bft_printf(...)" is not used - if this is intended, it should be cast to "void". (ignorecallval)
      bft_printf("    ..........   ............\n");
------^
cc: Info: cs_comm.c, line 2496: In this statement, the value returned from the function "bft_printf_flush(...)" is not used - if this is intended, it should be cast to "void". (ignorecallval)
  bft_printf_flush();
--^
cc: Info: cs_comm.c, line 2555: In this statement, the value returned from the function "bft_file_write(...)" is not used - if this is intended, it should be cast to "void". (ignorecallval)
    bft_file_write(rec, taille, nbr, comm->fic);
----^
cc: Info: cs_comm.c, line 2621: In this statement, the value returned from the function "bft_file_read(...)" is not used - if this is intended, it should be cast to "void". (ignorecallval)
    bft_file_read(rec, taille, nbr, comm->fic);
----^
cc: Info: cs_comm.c, line 2680: In this statement, the value returned from the function "bft_file_printf(...)" is not used - if this is intended, it should be cast to "void". (ignorecallval)
        bft_file_printf(fic, "%s\n", tab_val_char + cpt_val);
--------^
cc: Info: cs_comm.c, line 2698: In this statement, the value returned from the function "bft_file_printf(...)" is not used - if this is intended, it should be cast to "void". (ignorecallval)
          bft_file_printf(fic, cs_comm_fmt_ascii_tab_int,
----------^
cc: Info: cs_comm.c, line 2700: In this statement, the value returned from the function "bft_file_printf(...)" is not used - if this is intended, it should be cast to "void". (ignorecallval)
        bft_file_printf(fic, "\n");
--------^
cc: Info: cs_comm.c, line 2709: In this statement, the value returned from the function "bft_file_printf(...)" is not used - if this is intended, it should be cast to "void". (ignorecallval)
          bft_file_printf(fic, cs_comm_fmt_ascii_tab_int,
----------^
cc: Info: cs_comm.c, line 2711: In this statement, the value returned from the function "bft_file_printf(...)" is not used - if this is intended, it should be cast to "void". (ignorecallval)
        bft_file_printf(fic, "\n");
--------^
cc: Info: cs_comm.c, line 2729: In this statement, the value returned from the function "bft_file_printf(...)" is not used - if this is intended, it should be cast to "void". (ignorecallval)
          bft_file_printf(fic, cs_comm_fmt_ascii_tab_real,
----------^
cc: Info: cs_comm.c, line 2731: In this statement, the value returned from the function "bft_file_printf(...)" is not used - if this is intended, it should be cast to "void". (ignorecallval)
        bft_file_printf(fic, "\n");
--------^
cc: Info: cs_comm.c, line 2740: In this statement, the value returned from the function "bft_file_printf(...)" is not used - if this is intended, it should be cast to "void". (ignorecallval)
          bft_file_printf(fic, cs_comm_fmt_ascii_tab_real,
----------^
cc: Info: cs_comm.c, line 2742: In this statement, the value returned from the function "bft_file_printf(...)" is not used - if this is intended, it should be cast to "void". (ignorecallval)
        bft_file_printf(fic, "\n");
--------^
cc: Info: cs_comm.c, line 2819: In this statement, the value returned from the function "strcpy(...)" is not used - if this is intended, it should be cast to "void". (ignorecallval)
          strcpy(tab_val_char + nbr_lus, buf);
----------^
cc: Info: cs_comm.c, line 2825: In this statement, the value returned from the function "strcpy(...)" is not used - if this is intended, it should be cast to "void". (ignorecallval)
          strcpy(tab_val_char + nbr_lus, buf);
----------^
cc: Info: cs_comm.c, line 26: This include directive does not contribute to the compilation, perhaps because the file has already been included. (unusedtop)
#include <sys/types.h>
-^
cc: Info: cs_comm.c, line 27: This include directive does not contribute to the compilation, perhaps because the file has already been included. (unusedtop)
#include <sys/socket.h>
-^
cc: Info: cs_comm.c, line 28: This include directive does not contribute to the compilation, perhaps because the file has already been included. (unusedtop)
#include <netinet/in.h>
-^
cc: Info: cs_comm.c, line 29: This include directive does not contribute to the compilation, perhaps because the file has already been included. (unusedtop)
#include <arpa/inet.h>
-^
cc: Info: /home/saturne/Saturne/opt/bft-1.0.2/arch/OSF1/include/bft_error.h, line 33: This nested include file appears to be unused. (unusedincl)
#include <stdarg.h>
-^
cc: Info: /home/saturne/Saturne/opt/bft-1.0.2/arch/OSF1/include/bft_file.h, line 39: This nested include file appears to be unused. (unusedincl)
#    include <stddef.h>
-----^
cc: Info: /home/saturne/Saturne/opt/bft-1.0.2/arch/OSF1/include/bft_file.h, line 49: This nested include file appears to be unused. (unusedincl)
#include <bft_config.h>
-^
cc: Info: /home/saturne/Saturne/opt/bft-1.0.2/arch/OSF1/include/bft_file.h, line 50: This nested include file appears to be unused. (unusedincl)
#include <bft_error.h>
-^
cc: Info: /home/saturne/Saturne/opt/bft-1.0.2/arch/OSF1/include/bft_mem.h, line 39: This nested include file appears to be unused. (unusedincl)
#    include <stddef.h>
-----^
cc: Info: /home/saturne/Saturne/opt/bft-1.0.2/arch/OSF1/include/bft_mem.h, line 49: This nested include file appears to be unused. (unusedincl)
#include <bft_config.h>
-^
cc: Info: /home/saturne/Saturne/opt/bft-1.0.2/arch/OSF1/include/bft_mem.h, line 50: This nested include file appears to be unused. (unusedincl)
#include <bft_error.h>
-^
cc: Info: /home/saturne/Saturne/opt/bft-1.0.2/arch/OSF1/include/bft_printf.h, line 33: This nested include file appears to be unused. (unusedincl)
#include <stdarg.h>
-^
cc: Info: /home/saturne/Saturne/opt/bft-1.0.2/arch/OSF1/include/bft_printf.h, line 37: This nested include file appears to be unused. (unusedincl)
#include <bft_config.h>
-^
cc: Info: cs_base.h, line 17: This nested include file appears to be unused. (unusedincl)
#include <mpi.h>
-^
cc: Info: cs_comm.h, line 24: This nested include file appears to be unused. (unusedincl)
#include "cs_base.h"
-^
cc: Info: cs_comm.c, line 2861: Code at or just after this location can never be executed. (unreachcode)
        fmt_lec[1] = 'l', fmt_lec[2] = 'd', fmt_lec[3] = '\0';
--------^
cc: Info: cs_comm.c, line 2863: Code at or just after this location can never be executed. (unreachcode)
        fmt_lec[1] = 'L', fmt_lec[2] = 'd', fmt_lec[3] = '\0';
--------^
cc: Info: cs_comm.c, line 2903: Code at or just after this location can never be executed. (unreachcode)
        fmt_lec[1] = 'g', fmt_lec[2] = '\0';
--------^
cc: Info: cs_comm.c, line 2907: Code at or just after this location can never be executed. (unreachcode)
        fmt_lec[1] = 'L', fmt_lec[2] = 'g', fmt_lec[3] = '\0';
--------^
cs_couplage.c
cc   -I/home/saturne/Saturne/opt/bft-1.0.2/arch/OSF1/include -I/home/saturne/Saturne/opt/fvm-0.6.1/arch/OSF1/include -I/usr/include  -I/home/saturne/Saturne/opt/libxml2-2.6.19/include/libxml2 -D_OSF_SOURCE -D_CS_HAVE_MPI  -D_CS_HAVE_SOCKET  -D_CS_HAVE_XML     -DNDEBUG  -ansi_alias -std  -trapuv  -check -msg_enable alignment -msg_enable noansi  -msg_enable performance -portable -msg_enable c_to_cxx -O -arch host -tune host    -c cs_couplage.c
cc: Info: cs_maillage.h, line 110: An additional 4 bytes of padding have been implicitly inserted prior to this member for proper alignment of this member. (strctpadding)
  cs_real_t  *coo_som;             /* Coordonnées des sommets */
--------------^
cc: Info: cs_maillage.h, line 178: An additional 4 bytes of padding have been implicitly inserted prior to this member for proper alignment of this member. (strctpadding)
  cs_int_t   *pos_grp;                /* Position de départ de chaque groupe
--------------^
cc: Info: cs_couplage.c, line 220: In this statement, the value returned from the function "fvm_nodal_destroy(...)" is not used - if this is intended, it should be cast to "void". (ignorecallval)
    fvm_nodal_destroy(coupl->cells_sup);
----^
cc: Info: cs_couplage.c, line 222: In this statement, the value returned from the function "fvm_nodal_destroy(...)" is not used - if this is intended, it should be cast to "void". (ignorecallval)
    fvm_nodal_destroy(coupl->faces_sup);
----^
cc: Info: cs_couplage.c, line 241: In this statement, the value returned from the function "MPI_Allreduce(...)" is not used - if this is intended, it should be cast to "void". (ignorecallval)
    MPI_Allreduce (indic_loc, indic_glob, 2, MPI_INT, MPI_MAX,
----^
cc: Info: cs_couplage.c, line 839: In this statement, the value returned from the function "MPI_Sendrecv(...)" is not used - if this is intended, it should be cast to "void". (ignorecallval)
      MPI_Sendrecv(vardis, *nbrdis, CS_MPI_INT, coupl->rang_deb_dist, 0,
------^
cc: Info: cs_couplage.c, line 846: In this statement, the value returned from the function "MPI_Bcast(...)" is not used - if this is intended, it should be cast to "void". (ignorecallval)
      MPI_Bcast (varloc, *nbrloc, CS_MPI_INT, 0, cs_glob_base_mpi_comm);
------^
cc: Info: cs_couplage.c, line 917: In this statement, the value returned from the function "MPI_Sendrecv(...)" is not used - if this is intended, it should be cast to "void". (ignorecallval)
      MPI_Sendrecv(vardis, *nbrdis, CS_MPI_REAL, coupl->rang_deb_dist, 0,
------^
cc: Info: cs_couplage.c, line 924: In this statement, the value returned from the function "MPI_Bcast(...)" is not used - if this is intended, it should be cast to "void". (ignorecallval)
      MPI_Bcast (varloc, *nbrloc, CS_MPI_REAL, 0, cs_glob_base_mpi_comm);
------^
cc: Info: cs_couplage.c, line 1005: In this statement, the value returned from the function "cs_loc_couplage_detruit(...)" is not used - if this is intended, it should be cast to "void". (ignorecallval)
    cs_loc_couplage_detruit(cs_glob_couplages[i]);
----^
cc: Info: cs_couplage.c, line 1046: In this statement, the value returned from the function "MPI_Initialized(...)" is not used - if this is intended, it should be cast to "void". (ignorecallval)
  MPI_Initialized(&mpi_flag);
--^
cc: Info: cs_couplage.c, line 1058: In this statement, the value returned from the function "MPI_Comm_rank(...)" is not used - if this is intended, it should be cast to "void". (ignorecallval)
    MPI_Comm_rank(MPI_COMM_WORLD, &r_glob);
----^
cc: Info: cs_couplage.c, line 1059: In this statement, the value returned from the function "MPI_Allreduce(...)" is not used - if this is intended, it should be cast to "void". (ignorecallval)
    MPI_Allreduce(&r_glob, &r_loc_min, 1, MPI_INT, MPI_MIN, cs_glob_base_mpi_comm);
----^
cc: Info: cs_couplage.c, line 1060: In this statement, the value returned from the function "MPI_Allreduce(...)" is not used - if this is intended, it should be cast to "void". (ignorecallval)
    MPI_Allreduce(&r_glob, &r_loc_max, 1, MPI_INT, MPI_MAX, cs_glob_base_mpi_comm);
----^
cc: Info: cs_couplage.c, line 1061: In this statement, the value returned from the function "MPI_Comm_size(...)" is not used - if this is intended, it should be cast to "void". (ignorecallval)
    MPI_Comm_size(MPI_COMM_WORLD, &nb_rangs_glob);
----^
cc: Info: cs_couplage.c, line 1063: In this statement, the value returned from the function "MPI_Comm_size(...)" is not used - if this is intended, it should be cast to "void". (ignorecallval)
    MPI_Comm_size(cs_glob_base_mpi_comm, &nb_rangs_loc);
----^
cc: Info: cs_couplage.c, line 1100: In this statement, the value returned from the function "MPI_Intercomm_create(...)" is not used - if this is intended, it should be cast to "void". (ignorecallval)
      MPI_Intercomm_create(cs_glob_base_mpi_comm, 0, MPI_COMM_WORLD,
------^
cc: Info: cs_couplage.c, line 1103: In this statement, the value returned from the function "MPI_Intercomm_merge(...)" is not used - if this is intended, it should be cast to "void". (ignorecallval)
      MPI_Intercomm_merge(intercomm_tmp, haut, &(couplage->comm));
------^
cc: Info: cs_couplage.c, line 1105: In this statement, the value returned from the function "MPI_Comm_free(...)" is not used - if this is intended, it should be cast to "void". (ignorecallval)
      MPI_Comm_free(&intercomm_tmp);
------^
cc: Info: cs_couplage.c, line 1109: In this statement, the value returned from the function "MPI_Comm_size(...)" is not used - if this is intended, it should be cast to "void". (ignorecallval)
      MPI_Comm_size(couplage->comm, &nb_rangs_dist);
------^
cc: Info: cs_couplage.c, line 1116: In this statement, the value returned from the function "MPI_Comm_rank(...)" is not used - if this is intended, it should be cast to "void". (ignorecallval)
      MPI_Comm_rank(couplage->comm, &r_coupl);
------^
cc: Info: cs_couplage.c, line 1117: In this statement, the value returned from the function "MPI_Allreduce(...)" is not used - if this is intended, it should be cast to "void". (ignorecallval)
      MPI_Allreduce(&r_coupl, &r_coupl_min, 1, MPI_INT, MPI_MIN,
------^
cc: Info: cs_couplage.c, line 1129: In this statement, the value returned from the function "bft_printf(...)" is not used - if this is intended, it should be cast to "void". (ignorecallval)
      bft_printf("r %d (%d / %d) : nb_rangs_dist = %d, rang_deb_dist = %d\n",
------^
cc: Info: cs_couplage.c, line 1179: In this statement, the value returned from the function "fvm_locator_destroy(...)" is not used - if this is intended, it should be cast to "void". (ignorecallval)
  fvm_locator_destroy(couplage->localis_cel);
--^
cc: Info: cs_couplage.c, line 1180: In this statement, the value returned from the function "fvm_locator_destroy(...)" is not used - if this is intended, it should be cast to "void". (ignorecallval)
  fvm_locator_destroy(couplage->localis_fbr);
--^
cc: Info: cs_couplage.c, line 1183: In this statement, the value returned from the function "fvm_nodal_destroy(...)" is not used - if this is intended, it should be cast to "void". (ignorecallval)
    fvm_nodal_destroy(couplage->cells_sup);
----^
cc: Info: cs_couplage.c, line 1185: In this statement, the value returned from the function "fvm_nodal_destroy(...)" is not used - if this is intended, it should be cast to "void". (ignorecallval)
    fvm_nodal_destroy(couplage->faces_sup);
----^
cc: Info: cs_couplage.c, line 1190: In this statement, the value returned from the function "MPI_Comm_free(...)" is not used - if this is intended, it should be cast to "void". (ignorecallval)
    MPI_Comm_free(&(couplage->comm));
----^
cc: Info: cs_couplage.c, line 9: Files included by this file are referenced.  However nothing else appears to be referenced from this file. (nestincl)
#include <assert.h>
-^
cc: Info: cs_couplage.c, line 10: Files included by this file are referenced.  However nothing else appears to be referenced from this file. (nestincl)
#include <stdarg.h>
-^
cc: Info: cs_couplage.c, line 12: This include directive does not contribute to the compilation, perhaps because the file has already been included. (unusedtop)
#include <stdlib.h>
-^
cc: Info: cs_couplage.c, line 13: It is not necessary to include this file, if other unused include directives are removed. (unnecincl)
#include <string.h>
-^
cc: Info: cs_couplage.c, line 17: This include directive does not contribute to the compilation, perhaps because the file has already been included. (unusedtop)
#include <bft_config.h>
-^
cc: Info: /home/saturne/Saturne/opt/bft-1.0.2/arch/OSF1/include/bft_mem.h, line 39: This nested include file appears to be unused. (unusedincl)
#    include <stddef.h>
-----^
cc: Info: /home/saturne/Saturne/opt/bft-1.0.2/arch/OSF1/include/bft_mem.h, line 49: This nested include file appears to be unused. (unusedincl)
#include <bft_config.h>
-^
cc: Info: /home/saturne/Saturne/opt/bft-1.0.2/arch/OSF1/include/bft_error.h, line 33: This nested include file appears to be unused. (unusedincl)
#include <stdarg.h>
-^
cc: Info: /home/saturne/Saturne/opt/bft-1.0.2/arch/OSF1/include/bft_error.h, line 37: This nested include file appears to be unused. (unusedincl)
#include <bft_config.h>
-^
cc: Info: /home/saturne/Saturne/opt/bft-1.0.2/arch/OSF1/include/bft_printf.h, line 33: This nested include file appears to be unused. (unusedincl)
#include <stdarg.h>
-^
cc: Info: /home/saturne/Saturne/opt/bft-1.0.2/arch/OSF1/include/bft_printf.h, line 37: This nested include file appears to be unused. (unusedincl)
#include <bft_config.h>
-^
cc: Info: /home/saturne/Saturne/opt/fvm-0.6.1/arch/OSF1/include/fvm_defs.h, line 31: This nested include file appears to be unused. (unusedincl)
#include <fvm_config.h>
-^
cc: Info: /home/saturne/Saturne/opt/fvm-0.6.1/arch/OSF1/include/fvm_nodal.h, line 33: This nested include file appears to be unused. (unusedincl)
#include <fvm_defs.h>
-^
cc: Info: /home/saturne/Saturne/opt/fvm-0.6.1/arch/OSF1/include/fvm_nodal.h, line 34: This nested include file appears to be unused. (unusedincl)
#include <fvm_io_num.h>
-^
cc: Info: cs_couplage.c, line 24: This include directive does not contribute to the compilation, perhaps because the file has already been included. (unusedtop)
#include <fvm_nodal.h>
-^
cc: Info: cs_couplage.c, line 25: This include directive does not contribute to the compilation, perhaps because the file has already been included. (unusedtop)
#include <fvm_writer.h>
-^
cc: Info: cs_base.h, line 17: This nested include file appears to be unused. (unusedincl)
#include <mpi.h>
-^
cc: Info: cs_maillage.h, line 18: This nested include file appears to be unused. (unusedincl)
#include "fvm_defs.h"
-^
cc: Info: cs_maillage.h, line 24: This nested include file appears to be unused. (unusedincl)
#include "cs_base.h"
-^
cc: Info: cs_perio.h, line 19: This nested include file appears to be unused. (unusedincl)
#include "cs_base.h"
-^
cc: Info: cs_maillage_connect.h, line 20: This nested include file appears to be unused. (unusedincl)
#include "cs_base.h"
-^
cc: Info: cs_maillage_connect.h, line 21: This nested include file appears to be unused. (unusedincl)
#include "cs_maillage.h"
-^
cc: Info: cs_maillage_grd.h, line 19: This nested include file appears to be unused. (unusedincl)
#include "cs_base.h"
-^
cc: Info: cs_maillage_grd.h, line 20: This nested include file appears to be unused. (unusedincl)
#include "cs_maillage.h"
-^
cc: Info: cs_maillage_connect.h, line 24: This nested include file appears to be unused. (unusedincl)
#include "fvm_nodal.h"
-^
cc: Info: cs_couplage.h, line 20: This nested include file appears to be unused. (unusedincl)
#include "cs_base.h"
-^
cs_gui.c
cc   -I/home/saturne/Saturne/opt/bft-1.0.2/arch/OSF1/include -I/home/saturne/Saturne/opt/fvm-0.6.1/arch/OSF1/include -I/usr/include  -I/home/saturne/Saturne/opt/libxml2-2.6.19/include/libxml2 -D_OSF_SOURCE -D_CS_HAVE_MPI  -D_CS_HAVE_SOCKET  -D_CS_HAVE_XML     -DNDEBUG  -ansi_alias -std  -trapuv  -check -msg_enable alignment -msg_enable noansi  -msg_enable performance -portable -msg_enable c_to_cxx -O -arch host -tune host    -c cs_gui.c
cc: Info: /home/saturne/Saturne/opt/libxml2-2.6.19/include/libxml2/libxml/tree.h, line 180: The type "struct _xmlNode" is declared nested within "struct _xmlAttribute".  In C, the nesting is ignored and struct _xmlNode can be accessed as if it were not nested.  However, in C++, the struct _xmlNode type itself will be considered to be a member of struct _xmlAttribute and only accessible using the "::" operator.  To avoid this problem, outside of struct _xmlAttribute either define the struct _xmlNode type or declare its tag using the statement "struct _xmlNode;". (nestedtype)
    struct _xmlNode    *children;	/* NULL */
----^
cc: Info: /home/saturne/Saturne/opt/libxml2-2.6.19/include/libxml2/libxml/tree.h, line 182: The type "struct _xmlDtd" is declared nested within "struct _xmlAttribute".  In C, the nesting is ignored and struct _xmlDtd can be accessed as if it were not nested.  However, in C++, the struct _xmlDtd type itself will be considered to be a member of struct _xmlAttribute and only accessible using the "::" operator.  To avoid this problem, outside of struct _xmlAttribute either define the struct _xmlDtd type or declare its tag using the statement "struct _xmlDtd;". (nestedtype)
    struct _xmlDtd       *parent;	/* -> DTD */
----^
cc: Info: /home/saturne/Saturne/opt/libxml2-2.6.19/include/libxml2/libxml/tree.h, line 185: The type "struct _xmlDoc" is declared nested within "struct _xmlAttribute".  In C, the nesting is ignored and struct _xmlDoc can be accessed as if it were not nested.  However, in C++, the struct _xmlDoc type itself will be considered to be a member of struct _xmlAttribute and only accessible using the "::" operator.  To avoid this problem, outside of struct _xmlAttribute either define the struct _xmlDoc type or declare its tag using the statement "struct _xmlDoc;". (nestedtype)
    struct _xmlDoc          *doc;       /* the containing document */
----^
cc: Info: /home/saturne/Saturne/opt/libxml2-2.6.19/include/libxml2/libxml/tree.h, line 179: An additional 4 bytes of padding have been implicitly inserted prior to this member for proper alignment of this member. (strctpadding)
    const xmlChar          *name;	/* Attribute name */
----------------------------^
cc: Info: /home/saturne/Saturne/opt/libxml2-2.6.19/include/libxml2/libxml/tree.h, line 273: An additional 4 bytes of padding have been implicitly inserted prior to this member for proper alignment of this member. (strctpadding)
    const xmlChar          *name;	/* Element name */
----------------------------^
cc: Info: /home/saturne/Saturne/opt/libxml2-2.6.19/include/libxml2/libxml/tree.h, line 282: An additional 4 bytes of padding have been implicitly inserted prior to this member for proper alignment of this member. (strctpadding)
    xmlElementContentPtr content;	/* the allowed element content */
-------------------------^
cc: Info: /home/saturne/Saturne/opt/libxml2-2.6.19/include/libxml2/libxml/tree.h, line 316: An additional 4 bytes of padding have been implicitly inserted prior to this member for proper alignment of this member. (strctpadding)
    const xmlChar *href;	/* URL for the namespace */
-------------------^
cc: Info: /home/saturne/Saturne/opt/libxml2-2.6.19/include/libxml2/libxml/tree.h, line 332: An additional 4 bytes of padding have been implicitly inserted prior to this member for proper alignment of this member. (strctpadding)
    const xmlChar *name;	/* Name of the DTD */
-------------------^
cc: Info: /home/saturne/Saturne/opt/libxml2-2.6.19/include/libxml2/libxml/tree.h, line 360: An additional 4 bytes of padding have been implicitly inserted prior to this member for proper alignment of this member. (strctpadding)
    const xmlChar   *name;      /* the name of the property */
---------------------^
cc: Info: /home/saturne/Saturne/opt/libxml2-2.6.19/include/libxml2/libxml/tree.h, line 369: An additional 4 bytes of padding have been implicitly inserted prior to this member for proper alignment of this member. (strctpadding)
    void            *psvi;	/* for type/PSVI informations */
---------------------^
cc: Info: /home/saturne/Saturne/opt/libxml2-2.6.19/include/libxml2/libxml/tree.h, line 386: An additional 4 bytes of padding have been implicitly inserted prior to this member for proper alignment of this member. (strctpadding)
    struct _xmlDoc   *doc;	/* The document holding the ID */
----------------------^
cc: Info: /home/saturne/Saturne/opt/libxml2-2.6.19/include/libxml2/libxml/tree.h, line 442: An additional 4 bytes of padding have been implicitly inserted prior to this member for proper alignment of this member. (strctpadding)
    const xmlChar   *name;      /* the name of the node, or the entity */
---------------------^
cc: Info: /home/saturne/Saturne/opt/libxml2-2.6.19/include/libxml2/libxml/tree.h, line 508: The type "struct _xmlDict" is declared nested within "struct _xmlDoc".  In C, the nesting is ignored and struct _xmlDict can be accessed as if it were not nested.  However, in C++, the struct _xmlDict type itself will be considered to be a member of struct _xmlDoc and only accessible using the "::" operator.  To avoid this problem, outside of struct _xmlDoc either define the struct _xmlDict type or declare its tag using the statement "struct _xmlDict;". (nestedtype)
    struct _xmlDict *dict;      /* dict used to allocate names or NULL */
----^
cc: Info: /home/saturne/Saturne/opt/libxml2-2.6.19/include/libxml2/libxml/tree.h, line 487: An additional 4 bytes of padding have been implicitly inserted prior to this member for proper alignment of this member. (strctpadding)
    char           *name;	/* name/filename/URI of the document */
--------------------^
cc: Info: /home/saturne/Saturne/opt/libxml2-2.6.19/include/libxml2/libxml/tree.h, line 508: An additional 4 bytes of padding have been implicitly inserted prior to this member for proper alignment of this member. (strctpadding)
    struct _xmlDict *dict;      /* dict used to allocate names or NULL */
---------------------^
cc: Info: /home/saturne/Saturne/opt/libxml2-2.6.19/include/libxml2/libxml/xmlerror.h, line 79: An additional 4 bytes of padding have been implicitly inserted prior to this member for proper alignment of this member. (strctpadding)
    char       *file;	/* the filename */
----------------^
cc: Info: /home/saturne/Saturne/opt/libxml2-2.6.19/include/libxml2/libxml/xmlerror.h, line 81: An additional 4 bytes of padding have been implicitly inserted prior to this member for proper alignment of this member. (strctpadding)
    char       *str1;	/* extra string information */
----------------^
cc: Info: /home/saturne/Saturne/opt/libxml2-2.6.19/include/libxml2/libxml/valid.h, line 94: An additional 4 bytes of padding have been implicitly inserted prior to this member for proper alignment of this member. (strctpadding)
    xmlDocPtr              doc;       /* the document */
---------------------------^
cc: Info: /home/saturne/Saturne/opt/libxml2-2.6.19/include/libxml2/libxml/valid.h, line 98: An additional 4 bytes of padding have been implicitly inserted prior to this member for proper alignment of this member. (strctpadding)
    xmlValidState     *vstate;        /* current state */
-----------------------^
cc: Info: /home/saturne/Saturne/opt/libxml2-2.6.19/include/libxml2/libxml/entities.h, line 41: An additional 4 bytes of padding have been implicitly inserted prior to this member for proper alignment of this member. (strctpadding)
    const xmlChar          *name;	/* Entity name */
----------------------------^
cc: Info: /home/saturne/Saturne/opt/libxml2-2.6.19/include/libxml2/libxml/parser.h, line 71: An additional 4 bytes of padding have been implicitly inserted prior to this member for proper alignment of this member. (strctpadding)
    unsigned long consumed;           /* How many xmlChars already consumed */
------------------^
cc: Info: /home/saturne/Saturne/opt/libxml2-2.6.19/include/libxml2/libxml/parser.h, line 208: An additional 4 bytes of padding have been implicitly inserted prior to this member for proper alignment of this member. (strctpadding)
    xmlParserNodeInfoSeq node_seq;    /* info about each node parsed */
-------------------------^
cc: Info: /home/saturne/Saturne/opt/libxml2-2.6.19/include/libxml2/libxml/parser.h, line 236: An additional 4 bytes of padding have been implicitly inserted prior to this member for proper alignment of this member. (strctpadding)
    const xmlChar *    intSubName;    /* name of subset */
-----------------------^
cc: Info: /home/saturne/Saturne/opt/libxml2-2.6.19/include/libxml2/libxml/parser.h, line 247: An additional 4 bytes of padding have been implicitly inserted prior to this member for proper alignment of this member. (strctpadding)
    xmlParserInputPtr  entity;        /* used to check entities boundaries */
-----------------------^
cc: Info: /home/saturne/Saturne/opt/libxml2-2.6.19/include/libxml2/libxml/parser.h, line 278: An additional 4 bytes of padding have been implicitly inserted prior to this member for proper alignment of this member. (strctpadding)
    const xmlChar *   *nsTab;         /* the array of prefix/namespace name */
-----------------------^
cc: Info: /home/saturne/Saturne/opt/libxml2-2.6.19/include/libxml2/libxml/parser.h, line 293: An additional 4 bytes of padding have been implicitly inserted prior to this member for proper alignment of this member. (strctpadding)
    xmlAttrPtr        freeAttrs;    /* List of freed attributes nodes */
----------------------^
cc: Info: /home/saturne/Saturne/opt/libxml2-2.6.19/include/libxml2/libxml/parser.h, line 735: An additional 4 bytes of padding have been implicitly inserted prior to this member for proper alignment of this member. (strctpadding)
    void *_private;
----------^
cc: Info: /home/saturne/Saturne/opt/libxml2-2.6.19/include/libxml2/libxml/globals.h, line 115: An additional 4 bytes of padding have been implicitly inserted prior to this member for proper alignment of this member. (strctpadding)
	const char *xmlTreeIndentString;
--------------------^
cc: Info: /home/saturne/Saturne/opt/libxml2-2.6.19/include/libxml2/libxml/xpath.h, line 113: An additional 4 bytes of padding have been implicitly inserted prior to this member for proper alignment of this member. (strctpadding)
    xmlNodeSetPtr nodesetval;
------------------^
cc: Info: /home/saturne/Saturne/opt/libxml2-2.6.19/include/libxml2/libxml/xpath.h, line 115: An additional 4 bytes of padding have been implicitly inserted prior to this member for proper alignment of this member. (strctpadding)
    double floatval;
-----------^
cc: Info: /home/saturne/Saturne/opt/libxml2-2.6.19/include/libxml2/libxml/xpath.h, line 119: An additional 4 bytes of padding have been implicitly inserted prior to this member for proper alignment of this member. (strctpadding)
    void *user2;
----------^
cc: Info: /home/saturne/Saturne/opt/libxml2-2.6.19/include/libxml2/libxml/xpath.h, line 288: An additional 4 bytes of padding have been implicitly inserted prior to this member for proper alignment of this member. (strctpadding)
    void *user;				/* function to free */
----------^
cc: Info: /home/saturne/Saturne/opt/libxml2-2.6.19/include/libxml2/libxml/xpath.h, line 296: An additional 4 bytes of padding have been implicitly inserted prior to this member for proper alignment of this member. (strctpadding)
    xmlNodePtr here;			/* for here() */
---------------^
cc: Info: /home/saturne/Saturne/opt/libxml2-2.6.19/include/libxml2/libxml/xpath.h, line 320: An additional 4 bytes of padding have been implicitly inserted prior to this member for proper alignment of this member. (strctpadding)
    void *userData;                     /* user specific data block */
----------^
cc: Info: /home/saturne/Saturne/opt/libxml2-2.6.19/include/libxml2/libxml/xpath.h, line 348: An additional 4 bytes of padding have been implicitly inserted prior to this member for proper alignment of this member. (strctpadding)
    xmlXPathContextPtr  context;	/* the evaluation context */
------------------------^
cc: Info: /home/saturne/Saturne/opt/libxml2-2.6.19/include/libxml2/libxml/xpath.h, line 356: An additional 4 bytes of padding have been implicitly inserted prior to this member for proper alignment of this member. (strctpadding)
    xmlNodePtr         ancestor;	/* used for walking preceding axis */
-----------------------^
cc: Info: cs_gui.c, line 176: An additional 4 bytes of padding have been implicitly inserted prior to this member for proper alignment of this member. (strctpadding)
  int   *rtp_ptr;           /* Pour chaque enum de la variable,               */
---------^
cc: Info: cs_gui.c, line 1268: In this statement, the value returned from the function "strcpy(...)" is not used - if this is intended, it should be cast to "void". (ignorecallval)
    strcpy(vars->label[0], label);
----^
cc: Info: cs_gui.c, line 1275: In this statement, the value returned from the function "strcpy(...)" is not used - if this is intended, it should be cast to "void". (ignorecallval)
    strcpy(vars->label[n+nbt], label);
----^
cc: Info: cs_gui.c, line 1372: In this statement, the value returned from the function "strcpy(...)" is not used - if this is intended, it should be cast to "void". (ignorecallval)
      strcpy(vars->label[n], label);
------^
cc: Info: cs_gui.c, line 1637: In this statement, the value returned from the function "strcpy(...)" is not used - if this is intended, it should be cast to "void". (ignorecallval)
  strcpy(vars->char2[nm], "pressure");
--^
cc: Info: cs_gui.c, line 1640: In this statement, the value returned from the function "strcpy(...)" is not used - if this is intended, it should be cast to "void". (ignorecallval)
  strcpy(vars->char2[nm], "velocity_U");
--^
cc: Info: cs_gui.c, line 1643: In this statement, the value returned from the function "strcpy(...)" is not used - if this is intended, it should be cast to "void". (ignorecallval)
  strcpy(vars->char2[nm], "velocity_V");
--^
cc: Info: cs_gui.c, line 1646: In this statement, the value returned from the function "strcpy(...)" is not used - if this is intended, it should be cast to "void". (ignorecallval)
  strcpy(vars->char2[nm], "velocity_W");
--^
cc: Info: cs_gui.c, line 1661: In this statement, the value returned from the function "strcpy(...)" is not used - if this is intended, it should be cast to "void". (ignorecallval)
    strcpy(vars->char2[nm], "turb_k");
----^
cc: Info: cs_gui.c, line 1664: In this statement, the value returned from the function "strcpy(...)" is not used - if this is intended, it should be cast to "void". (ignorecallval)
    strcpy(vars->char2[nm], "turb_eps");
----^
cc: Info: cs_gui.c, line 1694: In this statement, the value returned from the function "strcpy(...)" is not used - if this is intended, it should be cast to "void". (ignorecallval)
    strcpy(vars->char2[nm], "component_R11");
----^
cc: Info: cs_gui.c, line 1697: In this statement, the value returned from the function "strcpy(...)" is not used - if this is intended, it should be cast to "void". (ignorecallval)
    strcpy(vars->char2[nm], "component_R22");
----^
cc: Info: cs_gui.c, line 1700: In this statement, the value returned from the function "strcpy(...)" is not used - if this is intended, it should be cast to "void". (ignorecallval)
    strcpy(vars->char2[nm], "component_R33");
----^
cc: Info: cs_gui.c, line 1703: In this statement, the value returned from the function "strcpy(...)" is not used - if this is intended, it should be cast to "void". (ignorecallval)
    strcpy(vars->char2[nm], "component_R12");
----^
cc: Info: cs_gui.c, line 1706: In this statement, the value returned from the function "strcpy(...)" is not used - if this is intended, it should be cast to "void". (ignorecallval)
    strcpy(vars->char2[nm], "component_R13");
----^
cc: Info: cs_gui.c, line 1709: In this statement, the value returned from the function "strcpy(...)" is not used - if this is intended, it should be cast to "void". (ignorecallval)
    strcpy(vars->char2[nm], "component_R23");
----^
cc: Info: cs_gui.c, line 1730: In this statement, the value returned from the function "strcpy(...)" is not used - if this is intended, it should be cast to "void". (ignorecallval)
    strcpy(vars->char2[nm], "turb_k");
----^
cc: Info: cs_gui.c, line 1733: In this statement, the value returned from the function "strcpy(...)" is not used - if this is intended, it should be cast to "void". (ignorecallval)
    strcpy(vars->char2[nm], "turb_eps");
----^
cc: Info: cs_gui.c, line 1736: In this statement, the value returned from the function "strcpy(...)" is not used - if this is intended, it should be cast to "void". (ignorecallval)
    strcpy(vars->char2[nm], "turb_phi");
----^
cc: Info: cs_gui.c, line 1739: In this statement, the value returned from the function "strcpy(...)" is not used - if this is intended, it should be cast to "void". (ignorecallval)
    strcpy(vars->char2[nm], "turb_fb");
----^
cc: Info: cs_gui.c, line 1754: In this statement, the value returned from the function "strcpy(...)" is not used - if this is intended, it should be cast to "void". (ignorecallval)
    strcpy(vars->char2[nm], "turb_k");
----^
cc: Info: cs_gui.c, line 1757: In this statement, the value returned from the function "strcpy(...)" is not used - if this is intended, it should be cast to "void". (ignorecallval)
    strcpy(vars->char2[nm], "turb_omega");
----^
cc: Info: cs_gui.c, line 2898: In this statement, the value returned from the function "cs_gui_boundary_init_nature(...)" is not used - if this is intended, it should be cast to "void". (ignorecallval)
    cs_gui_boundary_init_nature(INLET,    &ind_tab, ientre);
----^
cc: Info: cs_gui.c, line 2899: In this statement, the value returned from the function "cs_gui_boundary_init_nature(...)" is not used - if this is intended, it should be cast to "void". (ignorecallval)
    cs_gui_boundary_init_nature(SYMMETRY, &ind_tab, isymet);
----^
cc: Info: cs_gui.c, line 2900: In this statement, the value returned from the function "cs_gui_boundary_init_nature(...)" is not used - if this is intended, it should be cast to "void". (ignorecallval)
    cs_gui_boundary_init_nature(WALL,     &ind_tab, iparoi);
----^
cc: Info: cs_gui.c, line 2901: In this statement, the value returned from the function "cs_gui_boundary_init_nature(...)" is not used - if this is intended, it should be cast to "void". (ignorecallval)
    cs_gui_boundary_init_nature(OUTLET,   &ind_tab, isolib);
----^
cc: Info: cs_gui.c, line 2902: In this statement, the value returned from the function "cs_gui_boundary_init_nature(...)" is not used - if this is intended, it should be cast to "void". (ignorecallval)
    cs_gui_boundary_init_nature(INDEF,    &ind_tab, iindef);
----^
cc: Info: cs_gui.c, line 3154: In this statement, the value returned from the function "cs_gui_get_activ_thermophysical_model(...)" is not used - if this is intended, it should be cast to "void". (ignorecallval)
  cs_gui_get_activ_thermophysical_model(&model, &modelvalue);
--^
cc: Info: cs_gui.c, line 3198: In this statement, the value returned from the function "strcpy(...)" is not used - if this is intended, it should be cast to "void". (ignorecallval)
  strcpy(name,cs_coal_combustion_properties[ITEMP2]);
--^
cc: Info: cs_gui.c, line 3200: In this statement, the value returned from the function "sprintf(...)" is not used - if this is intended, it should be cast to "void". (ignorecallval)
    sprintf(snumpp,"%2.2i",i+1);
----^
cc: Info: cs_gui.c, line 3201: In this statement, the value returned from the function "strcat(...)" is not used - if this is intended, it should be cast to "void". (ignorecallval)
    strcat(name, snumpp);
----^
cc: Info: cs_gui.c, line 3203: In this statement, the value returned from the function "strcpy(...)" is not used - if this is intended, it should be cast to "void". (ignorecallval)
    strcpy(name,cs_coal_combustion_properties[ITEMP2]);
----^
cc: Info: cs_gui.c, line 3208: In this statement, the value returned from the function "strcpy(...)" is not used - if this is intended, it should be cast to "void". (ignorecallval)
  strcpy(name,cs_coal_combustion_properties[IX2]);
--^
cc: Info: cs_gui.c, line 3210: In this statement, the value returned from the function "sprintf(...)" is not used - if this is intended, it should be cast to "void". (ignorecallval)
    sprintf(snumpp,"%2.2i",i+1);
----^
cc: Info: cs_gui.c, line 3211: In this statement, the value returned from the function "strcat(...)" is not used - if this is intended, it should be cast to "void". (ignorecallval)
    strcat(name, snumpp);
----^
cc: Info: cs_gui.c, line 3213: In this statement, the value returned from the function "strcpy(...)" is not used - if this is intended, it should be cast to "void". (ignorecallval)
    strcpy(name,cs_coal_combustion_properties[IX2]);
----^
cc: Info: cs_gui.c, line 3218: In this statement, the value returned from the function "strcpy(...)" is not used - if this is intended, it should be cast to "void". (ignorecallval)
  strcpy(name,cs_coal_combustion_properties[IROM2]);
--^
cc: Info: cs_gui.c, line 3220: In this statement, the value returned from the function "sprintf(...)" is not used - if this is intended, it should be cast to "void". (ignorecallval)
    sprintf(snumpp,"%2.2i",i+1);
----^
cc: Info: cs_gui.c, line 3221: In this statement, the value returned from the function "strcat(...)" is not used - if this is intended, it should be cast to "void". (ignorecallval)
    strcat(name, snumpp);
----^
[...]
pdfpp4.F
f90 -D_CS_HAVE_XML     -warn declarations -std  -O -arch host -tune host  -c pdfpp4.F
usd3p1.F
f90 -D_CS_HAVE_XML     -warn declarations -std  -O -arch host -tune host  -c usd3p1.F
usd3pc.F
f90 -D_CS_HAVE_XML     -warn declarations -std  -O -arch host -tune host  -c usd3pc.F
usd3pi.F
f90 -D_CS_HAVE_XML     -warn declarations -std  -O -arch host -tune host  -c usd3pi.F
usebu1.F
f90 -D_CS_HAVE_XML     -warn declarations -std  -O -arch host -tune host  -c usebu1.F
usebuc.F
f90 -D_CS_HAVE_XML     -warn declarations -std  -O -arch host -tune host  -c usebuc.F
usebui.F
f90 -D_CS_HAVE_XML     -warn declarations -std  -O -arch host -tune host  -c usebui.F
uslwc1.F
f90 -D_CS_HAVE_XML     -warn declarations -std  -O -arch host -tune host  -c uslwc1.F
uslwcc.F
f90 -D_CS_HAVE_XML     -warn declarations -std  -O -arch host -tune host  -c uslwcc.F
uslwci.F
f90 -D_CS_HAVE_XML     -warn declarations -std  -O -arch host -tune host  -c uslwci.F
***  Compilation terminée

***  Création de la librairie
***  Création de la librairie terminée

***  Installation de la librairie
***  Installation de la librairie terminée


   Generation du fichier resume
/home/saturne/Saturne/Noyau/ncs-1.3.d/build/OSF1/COGZ/.readmeCOGZ
   Nettoyage avec MOD=COGZ OPT=
***  "make" dans un répertoire de génération de la librairie
[7m *** Fin de la construction de COGZ
[m[m[m[?7h[?1;4l
[0m[7m
 *** Construction de CPLV sous OSF1
[m[m[m[?7h[?1;4l
[0m   Generation du repertoire CPLV
   Lien sur le Makefile
   Lancement de make avec MOD=CPLV OPT=

***  Compilation/lien Code_Saturne  version 1.3.d
***  Système OSF1

***  "make" dans un répertoire de génération de la librairie
***  Compilation
cpcym1.F
f90 -D_CS_HAVE_XML     -warn declarations -std  -O -arch host -tune host  -c cpcym1.F
cpflux.F
f90 -D_CS_HAVE_XML     -warn declarations -std  -O -arch host -tune host  -c cpflux.F
cpini1.F
f90 -D_CS_HAVE_XML     -warn declarations -std  -O -arch host -tune host  -c cpini1.F
cpiniv.F
f90 -D_CS_HAVE_XML     -warn declarations -std  -O -arch host -tune host  -c cpiniv.F
cplecd.F
f90 -D_CS_HAVE_XML     -warn declarations -std  -O -arch host -tune host  -c cplecd.F
cplin1.F
f90 -D_CS_HAVE_XML     -warn declarations -std  -O -arch host -tune host  -c cplin1.F
cplini.F
f90 -D_CS_HAVE_XML     -warn declarations -std  -O -arch host -tune host  -c cplini.F
cplph1.F
f90 -D_CS_HAVE_XML     -warn declarations -std  -O -arch host -tune host  -c cplph1.F
cplphy.F
f90 -D_CS_HAVE_XML     -warn declarations -std  -O -arch host -tune host  -c cplphy.F
cplpro.F
f90 -D_CS_HAVE_XML     -warn declarations -std  -O -arch host -tune host  -c cplpro.F
cpltcl.F
f90 -D_CS_HAVE_XML     -warn declarations -std  -O -arch host -tune host  -c cpltcl.F
cpltss.F
f90 -D_CS_HAVE_XML     -warn declarations -std  -O -arch host -tune host  -c cpltss.F
cpltsv.F
f90 -D_CS_HAVE_XML     -warn declarations -std  -O -arch host -tune host  -c cpltsv.F
cplvar.F
f90 -D_CS_HAVE_XML     -warn declarations -std  -O -arch host -tune host  -c cplvar.F
cplver.F
f90 -D_CS_HAVE_XML     -warn declarations -std  -O -arch host -tune host  -c cplver.F
cplym1.F
f90 -D_CS_HAVE_XML     -warn declarations -std  -O -arch host -tune host  -c cplym1.F
cppdf4.F
f90 -D_CS_HAVE_XML     -warn declarations -std  -O -arch host -tune host  -c cppdf4.F
cppdf5.F
f90 -D_CS_HAVE_XML     -warn declarations -std  -O -arch host -tune host  -c cppdf5.F
cppdfr.F
f90 -D_CS_HAVE_XML     -warn declarations -std  -O -arch host -tune host  -c cppdfr.F
cpphy1.F
f90 -D_CS_HAVE_XML     -warn declarations -std  -O -arch host -tune host  -c cpphy1.F
cpphy2.F
f90 -D_CS_HAVE_XML     -warn declarations -std  -O -arch host -tune host  -c cpphy2.F
cpphyv.F
f90 -D_CS_HAVE_XML     -warn declarations -std  -O -arch host -tune host  -c cpphyv.F
cpprop.F
f90 -D_CS_HAVE_XML     -warn declarations -std  -O -arch host -tune host  -c cpprop.F
cpptcl.F
f90 -D_CS_HAVE_XML     -warn declarations -std  -O -arch host -tune host  -c cpptcl.F
cprays.F
f90 -D_CS_HAVE_XML     -warn declarations -std  -O -arch host -tune host  -c cprays.F
cpteh1.F
f90 -D_CS_HAVE_XML     -warn declarations -std  -O -arch host -tune host  -c cpteh1.F
cpteh2.F
f90 -D_CS_HAVE_XML     -warn declarations -std  -O -arch host -tune host  -c cpteh2.F
cptehm.F
f90 -D_CS_HAVE_XML     -warn declarations -std  -O -arch host -tune host  -c cptehm.F
cpthp1.F
f90 -D_CS_HAVE_XML     -warn declarations -std  -O -arch host -tune host  -c cpthp1.F
cpthp2.F
f90 -D_CS_HAVE_XML     -warn declarations -std  -O -arch host -tune host  -c cpthp2.F
cptssc.F
f90 -D_CS_HAVE_XML     -warn declarations -std  -O -arch host -tune host  -c cptssc.F
cptsvc.F
f90 -D_CS_HAVE_XML     -warn declarations -std  -O -arch host -tune host  -c cptsvc.F
cptsvi.F
f90 -D_CS_HAVE_XML     -warn declarations -std  -O -arch host -tune host  -c cptsvi.F
cpvarp.F
f90 -D_CS_HAVE_XML     -warn declarations -std  -O -arch host -tune host  -c cpvarp.F
cpveri.F
f90 -D_CS_HAVE_XML     -warn declarations -std  -O -arch host -tune host  -c cpveri.F
memcp1.F
f90 -D_CS_HAVE_XML     -warn declarations -std  -O -arch host -tune host  -c memcp1.F
uscpcl.F
f90 -D_CS_HAVE_XML     -warn declarations -std  -O -arch host -tune host  -c uscpcl.F
uscpi1.F
f90 -D_CS_HAVE_XML     -warn declarations -std  -O -arch host -tune host  -c uscpi1.F
uscpiv.F
f90 -D_CS_HAVE_XML     -warn declarations -std  -O -arch host -tune host  -c uscpiv.F
uscpl1.F
f90 -D_CS_HAVE_XML     -warn declarations -std  -O -arch host -tune host  -c uscpl1.F
uscplc.F
f90 -D_CS_HAVE_XML     -warn declarations -std  -O -arch host -tune host  -c uscplc.F
***  Compilation terminée

***  Création de la librairie
***  Création de la librairie terminée

***  Installation de la librairie
***  Installation de la librairie terminée


   Generation du fichier resume
/home/saturne/Saturne/Noyau/ncs-1.3.d/build/OSF1/CPLV/.readmeCPLV
   Nettoyage avec MOD=CPLV OPT=
***  "make" dans un répertoire de génération de la librairie
[7m *** Fin de la construction de CPLV
[m[m[m[?7h[?1;4l
[0m[7m
 *** Construction de ELEC sous OSF1
[m[m[m[?7h[?1;4l
[0m   Generation du repertoire ELEC
   Lien sur le Makefile
   Lancement de make avec MOD=ELEC OPT=

***  Compilation/lien Code_Saturne  version 1.3.d
***  Système OSF1

***  "make" dans un répertoire de génération de la librairie
***  Compilation
elflux.F
f90 -D_CS_HAVE_XML     -warn declarations -std  -O -arch host -tune host  -c elflux.F
elini1.F
f90 -D_CS_HAVE_XML     -warn declarations -std  -O -arch host -tune host  -c elini1.F
eliniv.F
f90 -D_CS_HAVE_XML     -warn declarations -std  -O -arch host -tune host  -c eliniv.F
ellecd.F
f90 -D_CS_HAVE_XML     -warn declarations -std  -O -arch host -tune host  -c ellecd.F
elphyv.F
f90 -D_CS_HAVE_XML     -warn declarations -std  -O -arch host -tune host  -c elphyv.F
elprop.F
f90 -D_CS_HAVE_XML     -warn declarations -std  -O -arch host -tune host  -c elprop.F
elthht.F
f90 -D_CS_HAVE_XML     -warn declarations -std  -O -arch host -tune host  -c elthht.F
eltssc.F
f90 -D_CS_HAVE_XML     -warn declarations -std  -O -arch host -tune host  -c eltssc.F
elvarp.F
f90 -D_CS_HAVE_XML     -warn declarations -std  -O -arch host -tune host  -c elvarp.F
elveri.F
f90 -D_CS_HAVE_XML     -warn declarations -std  -O -arch host -tune host  -c elveri.F
uselcl.F
f90 -D_CS_HAVE_XML     -warn declarations -std  -O -arch host -tune host  -c uselcl.F
uselen.F
f90 -D_CS_HAVE_XML     -warn declarations -std  -O -arch host -tune host  -c uselen.F
useli1.F
f90 -D_CS_HAVE_XML     -warn declarations -std  -O -arch host -tune host  -c useli1.F
useliv.F
f90 -D_CS_HAVE_XML     -warn declarations -std  -O -arch host -tune host  -c useliv.F
uselph.F
f90 -D_CS_HAVE_XML     -warn declarations -std  -O -arch host -tune host  -c uselph.F
uselrc.F
f90 -D_CS_HAVE_XML     -warn declarations -std  -O -arch host -tune host  -c uselrc.F
usetcl.F
f90 -D_CS_HAVE_XML     -warn declarations -std  -O -arch host -tune host  -c usetcl.F
***  Compilation terminée

***  Création de la librairie
***  Création de la librairie terminée

***  Installation de la librairie
***  Installation de la librairie terminée


   Generation du fichier resume
/home/saturne/Saturne/Noyau/ncs-1.3.d/build/OSF1/ELEC/.readmeELEC
   Nettoyage avec MOD=ELEC OPT=
***  "make" dans un répertoire de génération de la librairie
[7m *** Fin de la construction de ELEC
[m[m[m[?7h[?1;4l
[0m[7m
 *** Construction de LAGR sous OSF1
[m[m[m[?7h[?1;4l
[0m   Generation du repertoire LAGR
   Lien sur le Makefile
   Lancement de make avec MOD=LAGR OPT=

***  Compilation/lien Code_Saturne  version 1.3.d
***  Système OSF1

***  "make" dans un répertoire de génération de la librairie
***  Compilation
cs_lagrang.c
cc   -I/home/saturne/Saturne/opt/bft-1.0.2/arch/OSF1/include -I/home/saturne/Saturne/opt/fvm-0.6.1/arch/OSF1/include -I/usr/include  -I/home/saturne/Saturne/opt/libxml2-2.6.19/include/libxml2 -D_OSF_SOURCE -D_CS_HAVE_MPI  -D_CS_HAVE_SOCKET  -D_CS_HAVE_XML     -DNDEBUG  -ansi_alias -std  -trapuv  -check -msg_enable alignment -msg_enable noansi  -msg_enable performance -portable -msg_enable c_to_cxx -O -arch host -tune host    -c cs_lagrang.c
cc: Info: cs_lagrang.c, line 344: In this statement, the value returned from the function "fprintf(...)" is not used - if this is intended, it should be cast to "void". (ignorecallval)
    fprintf(stderr,"overflow |%g| > %g\nVerify the bounding box for your data\n",*value,MAX24) ;
----^
cc: Info: cs_lagrang.h, line 14: This nested include file appears to be unused. (unusedincl)
#include <stdio.h>
-^
cc: Info: cs_lagrang.h, line 15: This nested include file appears to be unused. (unusedincl)
#include <stdlib.h>
-^
cc: Info: cs_lagrang.h, line 16: This nested include file appears to be unused. (unusedincl)
#include <math.h>
-^
cc: Info: cs_lagrang.h, line 22: This nested include file appears to be unused. (unusedincl)
#include "cs_base.h"
-^
cc: Info: cs_lagrang.h, line 23: This nested include file appears to be unused. (unusedincl)
#include "cs_msg.h"
-^
diverv.F
f90 -D_CS_HAVE_XML     -warn declarations -std  -O -arch host -tune host  -c diverv.F
enslag.F
f90 -D_CS_HAVE_XML     -warn declarations -std  -O -arch host -tune host  -c enslag.F
enswaf.F
f90 -D_CS_HAVE_XML     -warn declarations -std  -O -arch host -tune host  -c enswaf.F
lagcar.F
f90 -D_CS_HAVE_XML     -warn declarations -std  -O -arch host -tune host  -c lagcar.F
lagcel.F
f90 -D_CS_HAVE_XML     -warn declarations -std  -O -arch host -tune host  -c lagcel.F
lagcou.F
f90 -D_CS_HAVE_XML     -warn declarations -std  -O -arch host -tune host  -c lagcou.F
lagdeb.F
f90 -D_CS_HAVE_XML     -warn declarations -std  -O -arch host -tune host  -c lagdeb.F
lageli.F
f90 -D_CS_HAVE_XML     -warn declarations -std  -O -arch host -tune host  -c lageli.F
lagent.F
f90 -D_CS_HAVE_XML     -warn declarations -std  -O -arch host -tune host  -c lagent.F
lageqp.F
f90 -D_CS_HAVE_XML     -warn declarations -std  -O -arch host -tune host  -c lageqp.F
lagerr.F
f90 -D_CS_HAVE_XML     -warn declarations -std  -O -arch host -tune host  -c lagerr.F
lages1.F
f90 -D_CS_HAVE_XML     -warn declarations -std  -O -arch host -tune host  -c lages1.F
lages2.F
f90 -D_CS_HAVE_XML     -warn declarations -std  -O -arch host -tune host  -c lages2.F
lagesp.F
f90 -D_CS_HAVE_XML     -warn declarations -std  -O -arch host -tune host  -c lagesp.F
laggra.F
f90 -D_CS_HAVE_XML     -warn declarations -std  -O -arch host -tune host  -c laggra.F
lagich.F
f90 -D_CS_HAVE_XML     -warn declarations -std  -O -arch host -tune host  -c lagich.F
lagidp.F
f90 -D_CS_HAVE_XML     -warn declarations -std  -O -arch host -tune host  -c lagidp.F
lagimp.F
f90 -D_CS_HAVE_XML     -warn declarations -std  -O -arch host -tune host  -c lagimp.F
lagini.F
f90 -D_CS_HAVE_XML     -warn declarations -std  -O -arch host -tune host  -c lagini.F
lagipn.F
f90 -D_CS_HAVE_XML     -warn declarations -std  -O -arch host -tune host  -c lagipn.F
lagitf.F
f90 -D_CS_HAVE_XML     -warn declarations -std  -O -arch host -tune host  -c lagitf.F
lagitg.F
f90 -D_CS_HAVE_XML     -warn declarations -std  -O -arch host -tune host  -c lagitg.F
lagitp.F
f90 -D_CS_HAVE_XML     -warn declarations -std  -O -arch host -tune host  -c lagitp.F
laglec.F
f90 -D_CS_HAVE_XML     -warn declarations -std  -O -arch host -tune host  -c laglec.F
laglis.F
f90 -D_CS_HAVE_XML     -warn declarations -std  -O -arch host -tune host  -c laglis.F
lagnew.F
f90 -D_CS_HAVE_XML     -warn declarations -std  -O -arch host -tune host  -c lagnew.F
lagnwc.F
f90 -D_CS_HAVE_XML     -warn declarations -std  -O -arch host -tune host  -c lagnwc.F
lagopt.F
f90 -D_CS_HAVE_XML     -warn declarations -std  -O -arch host -tune host  -c lagopt.F
lagout.F
f90 -D_CS_HAVE_XML     -warn declarations -std  -O -arch host -tune host  -c lagout.F
lagphy.F
f90 -D_CS_HAVE_XML     -warn declarations -std  -O -arch host -tune host  -c lagphy.F
lagpoi.F
f90 -D_CS_HAVE_XML     -warn declarations -std  -O -arch host -tune host  -c lagpoi.F
lagraf.F
f90 -D_CS_HAVE_XML     -warn declarations -std  -O -arch host -tune host  -c lagraf.F
lagrus.F
f90 -D_CS_HAVE_XML     -warn declarations -std  -O -arch host -tune host  -c lagrus.F
lagsta.F
f90 -D_CS_HAVE_XML     -warn declarations -std  -O -arch host -tune host  -c lagsta.F
lagstf.F
f90 -D_CS_HAVE_XML     -warn declarations -std  -O -arch host -tune host  -c lagstf.F
lagtri.F
f90 -D_CS_HAVE_XML     -warn declarations -std  -O -arch host -tune host  -c lagtri.F
lagune.F
f90 -D_CS_HAVE_XML     -warn declarations -std  -O -arch host -tune host  -c lagune.F
memla1.F
f90 -D_CS_HAVE_XML     -warn declarations -std  -O -arch host -tune host  -c memla1.F
memla2.F
f90 -D_CS_HAVE_XML     -warn declarations -std  -O -arch host -tune host  -c memla2.F
ouestu.F
f90 -D_CS_HAVE_XML     -warn declarations -std  -O -arch host -tune host  -c ouestu.F
uslabo.F
f90 -D_CS_HAVE_XML     -warn declarations -std  -O -arch host -tune host  -c uslabo.F
uslaed.F
f90 -D_CS_HAVE_XML     -warn declarations -std  -O -arch host -tune host  -c uslaed.F
uslaen.F
f90 -D_CS_HAVE_XML     -warn declarations -std  -O -arch host -tune host  -c uslaen.F
uslag1.F
f90 -D_CS_HAVE_XML     -warn declarations -std  -O -arch host -tune host  -c uslag1.F
uslag2.F
f90 -D_CS_HAVE_XML     -warn declarations -std  -O -arch host -tune host  -c uslag2.F
uslain.F
f90 -D_CS_HAVE_XML     -warn declarations -std  -O -arch host -tune host  -c uslain.F
uslaru.F
f90 -D_CS_HAVE_XML     -warn declarations -std  -O -arch host -tune host  -c uslaru.F
uslast.F
f90 -D_CS_HAVE_XML     -warn declarations -std  -O -arch host -tune host  -c uslast.F
uslatc.F
f90 -D_CS_HAVE_XML     -warn declarations -std  -O -arch host -tune host  -c uslatc.F
uslatp.F
f90 -D_CS_HAVE_XML     -warn declarations -std  -O -arch host -tune host  -c uslatp.F
***  Compilation terminée

***  Création de la librairie
***  Création de la librairie terminée

***  Installation de la librairie
***  Installation de la librairie terminée


   Generation du fichier resume
/home/saturne/Saturne/Noyau/ncs-1.3.d/build/OSF1/LAGR/.readmeLAGR
   Nettoyage avec MOD=LAGR OPT=
***  "make" dans un répertoire de génération de la librairie
[7m *** Fin de la construction de LAGR
[m[m[m[?7h[?1;4l
[0m[7m
 *** Construction de RAYT sous OSF1
[m[m[m[?7h[?1;4l
[0m   Generation du repertoire RAYT
   Lien sur le Makefile
   Lancement de make avec MOD=RAYT OPT=

***  Compilation/lien Code_Saturne  version 1.3.d
***  Système OSF1

***  "make" dans un répertoire de génération de la librairie
***  Compilation
memra1.F
f90 -D_CS_HAVE_XML     -warn declarations -std  -O -arch host -tune host  -c memra1.F
memra2.F
f90 -D_CS_HAVE_XML     -warn declarations -std  -O -arch host -tune host  -c memra2.F
memra3.F
f90 -D_CS_HAVE_XML     -warn declarations -std  -O -arch host -tune host  -c memra3.F
raybrd.F
f90 -D_CS_HAVE_XML     -warn declarations -std  -O -arch host -tune host  -c raybrd.F
raycli.F
f90 -D_CS_HAVE_XML     -warn declarations -std  -O -arch host -tune host  -c raycli.F
raydak.F
f90 -D_CS_HAVE_XML     -warn declarations -std  -O -arch host -tune host  -c raydak.F
raydir.F
f90 -D_CS_HAVE_XML     -warn declarations -std  -O -arch host -tune host  -c raydir.F
raydom.F
f90 -D_CS_HAVE_XML     -warn declarations -std  -O -arch host -tune host  -c raydom.F
rayens.F
f90 -D_CS_HAVE_XML     -warn declarations -std  -O -arch host -tune host  -c rayens.F
raylec.F
f90 -D_CS_HAVE_XML     -warn declarations -std  -O -arch host -tune host  -c raylec.F
rayopt.F
f90 -D_CS_HAVE_XML     -warn declarations -std  -O -arch host -tune host  -c rayopt.F
rayout.F
f90 -D_CS_HAVE_XML     -warn declarations -std  -O -arch host -tune host  -c rayout.F
raypar.F
f90 -D_CS_HAVE_XML     -warn declarations -std  -O -arch host -tune host  -c raypar.F
raypun.F
f90 -D_CS_HAVE_XML     -warn declarations -std  -O -arch host -tune host  -c raypun.F
raysca.F
f90 -D_CS_HAVE_XML     -warn declarations -std  -O -arch host -tune host  -c raysca.F
raysol.F
f90 -D_CS_HAVE_XML     -warn declarations -std  -O -arch host -tune host  -c raysol.F
rmodak.F
f90 -D_CS_HAVE_XML     -warn declarations -std  -O -arch host -tune host  -c rmodak.F
usray1.F
f90 -D_CS_HAVE_XML     -warn declarations -std  -O -arch host -tune host  -c usray1.F
usray2.F
f90 -D_CS_HAVE_XML     -warn declarations -std  -O -arch host -tune host  -c usray2.F
usray3.F
f90 -D_CS_HAVE_XML     -warn declarations -std  -O -arch host -tune host  -c usray3.F
usray4.F
f90 -D_CS_HAVE_XML     -warn declarations -std  -O -arch host -tune host  -c usray4.F
***  Compilation terminée

***  Création de la librairie
***  Création de la librairie terminée

***  Installation de la librairie
***  Installation de la librairie terminée


   Generation du fichier resume
/home/saturne/Saturne/Noyau/ncs-1.3.d/build/OSF1/RAYT/.readmeRAYT
   Nettoyage avec MOD=RAYT OPT=
***  "make" dans un répertoire de génération de la librairie
[7m *** Fin de la construction de RAYT
[m[m[m[?7h[?1;4l
[0m[7m
 *** Construction de MATI sous OSF1
[m[m[m[?7h[?1;4l
[0m   Generation du repertoire MATI
   Lien sur le Makefile
   Lancement de make avec MOD=MATI OPT=

***  Compilation/lien Code_Saturne  version 1.3.d
***  Système OSF1

***  "make" dans un répertoire de génération de la librairie
***  Compilation
memmat.F
f90 -D_CS_HAVE_XML     -warn declarations -std  -O -arch host -tune host  -c memmat.F
mtimpi.F
f90 -D_CS_HAVE_XML     -warn declarations -std  -O -arch host -tune host  -c mtimpi.F
mtini1.F
f90 -D_CS_HAVE_XML     -warn declarations -std  -O -arch host -tune host  -c mtini1.F
mtkpdc.F
f90 -D_CS_HAVE_XML     -warn declarations -std  -O -arch host -tune host  -c mtkpdc.F
mtphyv.F
f90 -D_CS_HAVE_XML     -warn declarations -std  -O -arch host -tune host  -c mtphyv.F
mtproj.F
f90 -D_CS_HAVE_XML     -warn declarations -std  -O -arch host -tune host  -c mtproj.F
mttsns.F
f90 -D_CS_HAVE_XML     -warn declarations -std  -O -arch host -tune host  -c mttsns.F
mttssc.F
f90 -D_CS_HAVE_XML     -warn declarations -std  -O -arch host -tune host  -c mttssc.F
mttycl.F
f90 -D_CS_HAVE_XML     -warn declarations -std  -O -arch host -tune host  -c mttycl.F
***  Compilation terminée

***  Création de la librairie
***  Création de la librairie terminée

***  Installation de la librairie
***  Installation de la librairie terminée


   Generation du fichier resume
/home/saturne/Saturne/Noyau/ncs-1.3.d/build/OSF1/MATI/.readmeMATI
   Nettoyage avec MOD=MATI OPT=
***  "make" dans un répertoire de génération de la librairie
[7m *** Fin de la construction de MATI
[m[m[m[?7h[?1;4l
[0m[7m
 *** Verification des acces
[m[m[m[?7h[?1;4l
[0mchmod: bin/compil_stat.exe: No such file or directory
[7m *** Fin de la verification des acces
[m[m[m[?7h[?1;4l
[0m[1m    Fin de l'installation des bibliotheques BASE CFBL COGZ CPLV ELEC LAGR RAYT MATI
    Version de Code_Saturne /home/saturne/Saturne/Noyau/ncs-1.3.d

[m[m[m[?7h[?1;4l
[0m