[1m
    Installation des bibliotheques BASE CFBL COGZ CPLV ELEC LAGR RAYT MATI sous SunOS
    Version de Code_Saturne /home/saturne/Noyau/ncs-1.3.d
       ==================================================================  
[m[m
[7m
 *** Repertoire de base CS_HOME = /home/saturne/Noyau/ncs-1.3.d
[m[m
[7m
 *** Protection prealable
[m[m
[7m
 *** Construction de BASE sous SunOS
[m[m
   Generation du repertoire BASE
   Lien sur le Makefile
   Lancement de make avec MOD=BASE OPT=

***  Compilation/lien Code_Saturne  version 1.3.d
***  Système SunOS

***  "make" dans un répertoire de génération de la librairie
***  Compilation
cs_ale.c
cc   -I/home/saturne/opt/bft-1.0.2/arch/SunOS/include -I/home/saturne/opt/fvm-0.6.1/arch/SunOS/include -I/home/saturne/opt/libxml2-2.6.19/include/libxml2 -D_POSIX_SOURCE -D_CS_HAVE_XML    			    -DNDEBUG  -Xa -xO2 -c cs_ale.c
cs_base.c
cc   -I/home/saturne/opt/bft-1.0.2/arch/SunOS/include -I/home/saturne/opt/fvm-0.6.1/arch/SunOS/include -I/home/saturne/opt/libxml2-2.6.19/include/libxml2 -D_POSIX_SOURCE -D_CS_HAVE_XML    			    -DNDEBUG  -Xa -xO2 -c cs_base.c
cs_comm.c
cc   -I/home/saturne/opt/bft-1.0.2/arch/SunOS/include -I/home/saturne/opt/fvm-0.6.1/arch/SunOS/include -I/home/saturne/opt/libxml2-2.6.19/include/libxml2 -D_POSIX_SOURCE -D_CS_HAVE_XML    			    -DNDEBUG  -Xa -xO2 -c cs_comm.c
cs_couplage.c
cc   -I/home/saturne/opt/bft-1.0.2/arch/SunOS/include -I/home/saturne/opt/fvm-0.6.1/arch/SunOS/include -I/home/saturne/opt/libxml2-2.6.19/include/libxml2 -D_POSIX_SOURCE -D_CS_HAVE_XML    			    -DNDEBUG  -Xa -xO2 -c cs_couplage.c
cs_gui.c
cc   -I/home/saturne/opt/bft-1.0.2/arch/SunOS/include -I/home/saturne/opt/fvm-0.6.1/arch/SunOS/include -I/home/saturne/opt/libxml2-2.6.19/include/libxml2 -D_POSIX_SOURCE -D_CS_HAVE_XML    			    -DNDEBUG  -Xa -xO2 -c cs_gui.c
cs_gui_matisse.c
cc   -I/home/saturne/opt/bft-1.0.2/arch/SunOS/include -I/home/saturne/opt/fvm-0.6.1/arch/SunOS/include -I/home/saturne/opt/libxml2-2.6.19/include/libxml2 -D_POSIX_SOURCE -D_CS_HAVE_XML    			    -DNDEBUG  -Xa -xO2 -c cs_gui_matisse.c
cs_gui_radiative_transfer.c
cc   -I/home/saturne/opt/bft-1.0.2/arch/SunOS/include -I/home/saturne/opt/fvm-0.6.1/arch/SunOS/include -I/home/saturne/opt/libxml2-2.6.19/include/libxml2 -D_POSIX_SOURCE -D_CS_HAVE_XML    			    -DNDEBUG  -Xa -xO2 -c cs_gui_radiative_transfer.c
cs_gui_util.c
cc   -I/home/saturne/opt/bft-1.0.2/arch/SunOS/include -I/home/saturne/opt/fvm-0.6.1/arch/SunOS/include -I/home/saturne/opt/libxml2-2.6.19/include/libxml2 -D_POSIX_SOURCE -D_CS_HAVE_XML    			    -DNDEBUG  -Xa -xO2 -c cs_gui_util.c
cs_maillage.c
cc   -I/home/saturne/opt/bft-1.0.2/arch/SunOS/include -I/home/saturne/opt/fvm-0.6.1/arch/SunOS/include -I/home/saturne/opt/libxml2-2.6.19/include/libxml2 -D_POSIX_SOURCE -D_CS_HAVE_XML    			    -DNDEBUG  -Xa -xO2 -c cs_maillage.c
cs_maillage_connect.c
cc   -I/home/saturne/opt/bft-1.0.2/arch/SunOS/include -I/home/saturne/opt/fvm-0.6.1/arch/SunOS/include -I/home/saturne/opt/libxml2-2.6.19/include/libxml2 -D_POSIX_SOURCE -D_CS_HAVE_XML    			    -DNDEBUG  -Xa -xO2 -c cs_maillage_connect.c
cs_maillage_grd.c
cc   -I/home/saturne/opt/bft-1.0.2/arch/SunOS/include -I/home/saturne/opt/fvm-0.6.1/arch/SunOS/include -I/home/saturne/opt/libxml2-2.6.19/include/libxml2 -D_POSIX_SOURCE -D_CS_HAVE_XML    			    -DNDEBUG  -Xa -xO2 -c cs_maillage_grd.c
cs_maillage_select.c
cc   -I/home/saturne/opt/bft-1.0.2/arch/SunOS/include -I/home/saturne/opt/fvm-0.6.1/arch/SunOS/include -I/home/saturne/opt/libxml2-2.6.19/include/libxml2 -D_POSIX_SOURCE -D_CS_HAVE_XML    			    -DNDEBUG  -Xa -xO2 -c cs_maillage_select.c
cs_maillage_solcom.c
cc   -I/home/saturne/opt/bft-1.0.2/arch/SunOS/include -I/home/saturne/opt/fvm-0.6.1/arch/SunOS/include -I/home/saturne/opt/libxml2-2.6.19/include/libxml2 -D_POSIX_SOURCE -D_CS_HAVE_XML    			    -DNDEBUG  -Xa -xO2 -c cs_maillage_solcom.c
cs_main.c
cc   -I/home/saturne/opt/bft-1.0.2/arch/SunOS/include -I/home/saturne/opt/fvm-0.6.1/arch/SunOS/include -I/home/saturne/opt/libxml2-2.6.19/include/libxml2 -D_POSIX_SOURCE -D_CS_HAVE_XML    			    -DNDEBUG  -Xa -xO2 -c cs_main.c
cs_mesh_quality.c
cc   -I/home/saturne/opt/bft-1.0.2/arch/SunOS/include -I/home/saturne/opt/fvm-0.6.1/arch/SunOS/include -I/home/saturne/opt/libxml2-2.6.19/include/libxml2 -D_POSIX_SOURCE -D_CS_HAVE_XML    			    -DNDEBUG  -Xa -xO2 -c cs_mesh_quality.c
cs_messages_ecs.c
cc   -I/home/saturne/opt/bft-1.0.2/arch/SunOS/include -I/home/saturne/opt/fvm-0.6.1/arch/SunOS/include -I/home/saturne/opt/libxml2-2.6.19/include/libxml2 -D_POSIX_SOURCE -D_CS_HAVE_XML    			    -DNDEBUG  -Xa -xO2 -c cs_messages_ecs.c
cs_msg.c
cc   -I/home/saturne/opt/bft-1.0.2/arch/SunOS/include -I/home/saturne/opt/fvm-0.6.1/arch/SunOS/include -I/home/saturne/opt/libxml2-2.6.19/include/libxml2 -D_POSIX_SOURCE -D_CS_HAVE_XML    			    -DNDEBUG  -Xa -xO2 -c cs_msg.c
cs_opts.c
cc   -I/home/saturne/opt/bft-1.0.2/arch/SunOS/include -I/home/saturne/opt/fvm-0.6.1/arch/SunOS/include -I/home/saturne/opt/libxml2-2.6.19/include/libxml2 -D_POSIX_SOURCE -D_CS_HAVE_XML    			    -DNDEBUG  -Xa -xO2 -c cs_opts.c
cs_parallel.c
cc   -I/home/saturne/opt/bft-1.0.2/arch/SunOS/include -I/home/saturne/opt/fvm-0.6.1/arch/SunOS/include -I/home/saturne/opt/libxml2-2.6.19/include/libxml2 -D_POSIX_SOURCE -D_CS_HAVE_XML    			    -DNDEBUG  -Xa -xO2 -c cs_parallel.c
cs_perio.c
cc   -I/home/saturne/opt/bft-1.0.2/arch/SunOS/include -I/home/saturne/opt/fvm-0.6.1/arch/SunOS/include -I/home/saturne/opt/libxml2-2.6.19/include/libxml2 -D_POSIX_SOURCE -D_CS_HAVE_XML    			    -DNDEBUG  -Xa -xO2 -c cs_perio.c
cs_post.c
cc   -I/home/saturne/opt/bft-1.0.2/arch/SunOS/include -I/home/saturne/opt/fvm-0.6.1/arch/SunOS/include -I/home/saturne/opt/libxml2-2.6.19/include/libxml2 -D_POSIX_SOURCE -D_CS_HAVE_XML    			    -DNDEBUG  -Xa -xO2 -c cs_post.c
cs_suite.c
cc   -I/home/saturne/opt/bft-1.0.2/arch/SunOS/include -I/home/saturne/opt/fvm-0.6.1/arch/SunOS/include -I/home/saturne/opt/libxml2-2.6.19/include/libxml2 -D_POSIX_SOURCE -D_CS_HAVE_XML    			    -DNDEBUG  -Xa -xO2 -c cs_suite.c
cs_syr_coupling.c
cc   -I/home/saturne/opt/bft-1.0.2/arch/SunOS/include -I/home/saturne/opt/fvm-0.6.1/arch/SunOS/include -I/home/saturne/opt/libxml2-2.6.19/include/libxml2 -D_POSIX_SOURCE -D_CS_HAVE_XML    			    -DNDEBUG  -Xa -xO2 -c cs_syr_coupling.c
cs_syr_messages.c
cc   -I/home/saturne/opt/bft-1.0.2/arch/SunOS/include -I/home/saturne/opt/fvm-0.6.1/arch/SunOS/include -I/home/saturne/opt/libxml2-2.6.19/include/libxml2 -D_POSIX_SOURCE -D_CS_HAVE_XML    			    -DNDEBUG  -Xa -xO2 -c cs_syr_messages.c
cs_tpar1d.c
cc   -I/home/saturne/opt/bft-1.0.2/arch/SunOS/include -I/home/saturne/opt/fvm-0.6.1/arch/SunOS/include -I/home/saturne/opt/libxml2-2.6.19/include/libxml2 -D_POSIX_SOURCE -D_CS_HAVE_XML    			    -DNDEBUG  -Xa -xO2 -c cs_tpar1d.c
cs_ventil.c
cc   -I/home/saturne/opt/bft-1.0.2/arch/SunOS/include -I/home/saturne/opt/fvm-0.6.1/arch/SunOS/include -I/home/saturne/opt/libxml2-2.6.19/include/libxml2 -D_POSIX_SOURCE -D_CS_HAVE_XML    			    -DNDEBUG  -Xa -xO2 -c cs_ventil.c
cs_voiset.c
cc   -I/home/saturne/opt/bft-1.0.2/arch/SunOS/include -I/home/saturne/opt/fvm-0.6.1/arch/SunOS/include -I/home/saturne/opt/libxml2-2.6.19/include/libxml2 -D_POSIX_SOURCE -D_CS_HAVE_XML    			    -DNDEBUG  -Xa -xO2 -c cs_voiset.c
tcpumx.c
cc   -I/home/saturne/opt/bft-1.0.2/arch/SunOS/include -I/home/saturne/opt/fvm-0.6.1/arch/SunOS/include -I/home/saturne/opt/libxml2-2.6.19/include/libxml2 -D_POSIX_SOURCE -D_CS_HAVE_XML    			    -DNDEBUG  -Xa -xO2 -c tcpumx.c
tremai.c
cc   -I/home/saturne/opt/bft-1.0.2/arch/SunOS/include -I/home/saturne/opt/fvm-0.6.1/arch/SunOS/include -I/home/saturne/opt/libxml2-2.6.19/include/libxml2 -D_POSIX_SOURCE -D_CS_HAVE_XML    			    -DNDEBUG  -Xa -xO2 -c tremai.c
alelap.F
f77 -D_CS_HAVE_XML    			               -O2 -c alelap.F
/tmp/fpp.03700.0.f:
	alelap:
alemaj.F
f77 -D_CS_HAVE_XML    			               -O2 -c alemaj.F
/tmp/fpp.03708.0.f:
	alemaj:
altycl.F
f77 -D_CS_HAVE_XML    			               -O2 -c altycl.F
/tmp/fpp.03716.0.f:
	altycl:
armtps.F
f77 -D_CS_HAVE_XML    			               -O2 -c armtps.F
/tmp/fpp.03724.0.f:
	armtps:
bilsc2.F
f77 -D_CS_HAVE_XML    			               -O2 -c bilsc2.F
/tmp/fpp.03732.0.f:
	bilsc2:
calgeo.F
f77 -D_CS_HAVE_XML    			               -O2 -c calgeo.F
/tmp/fpp.03740.0.f:
	calgeo:
calgrg.F
f77 -D_CS_HAVE_XML    			               -O2 -c calgrg.F
/tmp/fpp.03748.0.f:
	calgrg:
calhyd.F
f77 -D_CS_HAVE_XML    			               -O2 -c calhyd.F
/tmp/fpp.03756.0.f:
	calhyd:
calmom.F
f77 -D_CS_HAVE_XML    			               -O2 -c calmom.F
/tmp/fpp.03764.0.f:
	calmom:
caltri.F
f77 -D_CS_HAVE_XML    			               -O2 -c caltri.F
/tmp/fpp.03772.0.f:
	caltri:
catsma.F
f77 -D_CS_HAVE_XML    			               -O2 -c catsma.F
/tmp/fpp.03780.0.f:
	catsma:
causta.F
f77 -D_CS_HAVE_XML    			               -O2 -c causta.F
/tmp/fpp.03788.0.f:
	causta:
cgstab.F
f77 -D_CS_HAVE_XML    			               -O2 -c cgstab.F
/tmp/fpp.03796.0.f:
	cgstab:
clca66.F
f77 -D_CS_HAVE_XML    			               -O2 -c clca66.F
/tmp/fpp.03804.0.f:
	clca66:
cldijp.F
f77 -D_CS_HAVE_XML    			               -O2 -c cldijp.F
/tmp/fpp.03812.0.f:
	cldijp:
cldipo.F
f77 -D_CS_HAVE_XML    			               -O2 -c cldipo.F
/tmp/fpp.03820.0.f:
	cldipo:
clipke.F
f77 -D_CS_HAVE_XML    			               -O2 -c clipke.F
/tmp/fpp.03828.0.f:
	clipke:
clmlga.F
f77 -D_CS_HAVE_XML    			               -O2 -c clmlga.F
/tmp/fpp.03836.0.f:
	clmlga:
clprij.F
f77 -D_CS_HAVE_XML    			               -O2 -c clprij.F
/tmp/fpp.03844.0.f:
	clprij:
clpsca.F
f77 -D_CS_HAVE_XML    			               -O2 -c clpsca.F
/tmp/fpp.03852.0.f:
	clpsca:
clptur.F
f77 -D_CS_HAVE_XML    			               -O2 -c clptur.F
/tmp/fpp.03860.0.f:
	clptur:
clpv2f.F
f77 -D_CS_HAVE_XML    			               -O2 -c clpv2f.F
/tmp/fpp.03868.0.f:
	clpv2f:
clsurn.F
f77 -D_CS_HAVE_XML    			               -O2 -c clsurn.F
/tmp/fpp.03876.0.f:
	clsurn:
clsyvt.F
f77 -D_CS_HAVE_XML    			               -O2 -c clsyvt.F
/tmp/fpp.03884.0.f:
	clsyvt:
clvolc.F
f77 -D_CS_HAVE_XML    			               -O2 -c clvolc.F
/tmp/fpp.03892.0.f:
	clvolc:
codits.F
f77 -D_CS_HAVE_XML    			               -O2 -c codits.F
/tmp/fpp.03900.0.f:
	codits:
condli.F
f77 -D_CS_HAVE_XML    			               -O2 -c condli.F
/tmp/fpp.03908.0.f:
	condli:
cou1di.F
f77 -D_CS_HAVE_XML    			               -O2 -c cou1di.F
/tmp/fpp.03916.0.f:
	cou1di:
cou1do.F
f77 -D_CS_HAVE_XML    			               -O2 -c cou1do.F
/tmp/fpp.03924.0.f:
	cou1do:
coupbi.F
f77 -D_CS_HAVE_XML    			               -O2 -c coupbi.F
/tmp/fpp.03932.0.f:
	coupbi:
coupbo.F
f77 -D_CS_HAVE_XML    			               -O2 -c coupbo.F
/tmp/fpp.03940.0.f:
	coupbo:
covofi.F
f77 -D_CS_HAVE_XML    			               -O2 -c covofi.F
/tmp/fpp.03948.0.f:
	covofi:
cregeo.F
f77 -D_CS_HAVE_XML    			               -O2 -c cregeo.F
/tmp/fpp.03956.0.f:
	cregeo:
cs_post_util.F
f77 -D_CS_HAVE_XML    			               -O2 -c cs_post_util.F
/tmp/fpp.03964.0.f:
	pstcwr:
	pstcma:
	psteva:
csclli.F
f77 -D_CS_HAVE_XML    			               -O2 -c csclli.F
/tmp/fpp.03972.0.f:
	csclli:
csflsh.F
f77 -D_CS_HAVE_XML    			               -O2 -c csflsh.F
/tmp/fpp.03980.0.f:
	csflsh:
csinit.F
f77 -D_CS_HAVE_XML    			               -O2 -c csinit.F
/tmp/fpp.03988.0.f:
	csinit:
csprnt.F
f77 -D_CS_HAVE_XML    			               -O2 -c csprnt.F
/tmp/fpp.03996.0.f:
	csprnt:
cycmgr.F
f77 -D_CS_HAVE_XML    			               -O2 -c cycmgr.F
/tmp/fpp.04004.0.f:
	cycmgr:
distpr.F
f77 -D_CS_HAVE_XML    			               -O2 -c distpr.F
/tmp/fpp.04012.0.f:
	distpr:
distyp.F
f77 -D_CS_HAVE_XML    			               -O2 -c distyp.F
/tmp/fpp.04020.0.f:
	distyp:
divmas.F
f77 -D_CS_HAVE_XML    			               -O2 -c divmas.F
/tmp/fpp.04028.0.f:
	divmas:
divrij.F
f77 -D_CS_HAVE_XML    			               -O2 -c divrij.F
/tmp/fpp.04036.0.f:
	divrij:
dttvar.F
f77 -D_CS_HAVE_XML    			               -O2 -c dttvar.F
/tmp/fpp.04044.0.f:
	dttvar:
dvvpst.F
f77 -D_CS_HAVE_XML    			               -O2 -c dvvpst.F
/tmp/fpp.04052.0.f:
	dvvpst:
ecrava.F
f77 -D_CS_HAVE_XML    			               -O2 -c ecrava.F
/tmp/fpp.04060.0.f:
	ecrava:
ecrhis.F
f77 -D_CS_HAVE_XML    			               -O2 -c ecrhis.F
/tmp/fpp.04068.0.f:
	ecrhis:
ecrlis.F
f77 -D_CS_HAVE_XML    			               -O2 -c ecrlis.F
/tmp/fpp.04076.0.f:
	ecrlis:
filtre.F
f77 -D_CS_HAVE_XML    			               -O2 -c filtre.F
/tmp/fpp.04084.0.f:
	filtre:
findpt.F
f77 -D_CS_HAVE_XML    			               -O2 -c findpt.F
/tmp/fpp.04092.0.f:
	findpt:
gradco.F
f77 -D_CS_HAVE_XML    			               -O2 -c gradco.F
/tmp/fpp.04100.0.f:
	gradco:
gradmc.F
f77 -D_CS_HAVE_XML    			               -O2 -c gradmc.F
/tmp/fpp.04108.0.f:
	gradmc:
gradrc.F
f77 -D_CS_HAVE_XML    			               -O2 -c gradrc.F
/tmp/fpp.04116.0.f:
	gradrc:
grdcel.F
f77 -D_CS_HAVE_XML    			               -O2 -c grdcel.F
/tmp/fpp.04124.0.f:
	grdcel:
hturbp.F
f77 -D_CS_HAVE_XML    			               -O2 -c hturbp.F
/tmp/fpp.04132.0.f:
	hturbp:
iasize.F
f77 -D_CS_HAVE_XML    			               -O2 -c iasize.F
/tmp/fpp.04140.0.f:
	iasize:
idrbla.F
f77 -D_CS_HAVE_XML    			               -O2 -c idrbla.F
/tmp/fpp.04148.0.f:
	idrbla:
impini.F
f77 -D_CS_HAVE_XML    			               -O2 -c impini.F
/tmp/fpp.04156.0.f:
	impini:
iniini.F
f77 -D_CS_HAVE_XML    			               -O2 -c iniini.F
/tmp/fpp.04164.0.f:
	iniini:
inimas.F
f77 -D_CS_HAVE_XML    			               -O2 -c inimas.F
/tmp/fpp.04172.0.f:
	inimas:
inipst.F
f77 -D_CS_HAVE_XML    			               -O2 -c inipst.F
/tmp/fpp.04180.0.f:
	inipst:
initi1.F
f77 -D_CS_HAVE_XML    			               -O2 -c initi1.F
/tmp/fpp.04188.0.f:
	initi1:
initi2.F
f77 -D_CS_HAVE_XML    			               -O2 -c initi2.F
/tmp/fpp.04196.0.f:
	initi2:
iniusi.F
f77 -D_CS_HAVE_XML    			               -O2 -c iniusi.F
/tmp/fpp.04204.0.f:
	iniusi:
iniva0.F
f77 -D_CS_HAVE_XML    			               -O2 -c iniva0.F
/tmp/fpp.04212.0.f:
	iniva0:
inivar.F
f77 -D_CS_HAVE_XML    			               -O2 -c inivar.F
/tmp/fpp.04220.0.f:
	inivar:
invers.F
f77 -D_CS_HAVE_XML    			               -O2 -c invers.F
/tmp/fpp.04228.0.f:
	invers:
iprbla.F
f77 -D_CS_HAVE_XML    			               -O2 -c iprbla.F
/tmp/fpp.04236.0.f:
	iprbla:
itrgrp.F
f77 -D_CS_HAVE_XML    			               -O2 -c itrgrp.F
/tmp/fpp.04244.0.f:
	itrgrp:
itrmas.F
f77 -D_CS_HAVE_XML    			               -O2 -c itrmas.F
/tmp/fpp.04252.0.f:
	itrmas:
jacobi.F
f77 -D_CS_HAVE_XML    			               -O2 -c jacobi.F
/tmp/fpp.04260.0.f:
	jacobi:
lecamo.F
f77 -D_CS_HAVE_XML    			               -O2 -c lecamo.F
/tmp/fpp.04268.0.f:
	lecamo:
lecamp.F
f77 -D_CS_HAVE_XML    			               -O2 -c lecamp.F
/tmp/fpp.04276.0.f:
	lecamp:
lecamx.F
f77 -D_CS_HAVE_XML    			               -O2 -c lecamx.F
/tmp/fpp.04284.0.f:
	lecamx:
ledgeo.F
f77 -D_CS_HAVE_XML    			               -O2 -c ledgeo.F
/tmp/fpp.04292.0.f:
	ledgeo:
letgeo.F
f77 -D_CS_HAVE_XML    			               -O2 -c letgeo.F
/tmp/fpp.04300.0.f:
	letgeo:
limgrd.F
f77 -D_CS_HAVE_XML    			               -O2 -c limgrd.F
/tmp/fpp.04308.0.f:
	limgrd:
matrdt.F
f77 -D_CS_HAVE_XML    			               -O2 -c matrdt.F
/tmp/fpp.04316.0.f:
	matrdt:
matrix.F
f77 -D_CS_HAVE_XML    			               -O2 -c matrix.F
/tmp/fpp.04324.0.f:
	matrix:
memale.F
f77 -D_CS_HAVE_XML    			               -O2 -c memale.F
/tmp/fpp.04332.0.f:
	memale:
memcbr.F
f77 -D_CS_HAVE_XML    			               -O2 -c memcbr.F
/tmp/fpp.04340.0.f:
	memcbr:
memclg.F
f77 -D_CS_HAVE_XML    			               -O2 -c memclg.F
/tmp/fpp.04348.0.f:
	memclg:
memcli.F
f77 -D_CS_HAVE_XML    			               -O2 -c memcli.F
/tmp/fpp.04356.0.f:
	memcli:
memdis.F
f77 -D_CS_HAVE_XML    			               -O2 -c memdis.F
/tmp/fpp.04364.0.f:
	memdis:
memdtv.F
f77 -D_CS_HAVE_XML    			               -O2 -c memdtv.F
/tmp/fpp.04372.0.f:
	memdtv:
memdyp.F
f77 -D_CS_HAVE_XML    			               -O2 -c memdyp.F
/tmp/fpp.04383.0.f:
	memdyp:
memgrg.F
f77 -D_CS_HAVE_XML    			               -O2 -c memgrg.F
/tmp/fpp.04391.0.f:
	memgrg:
memini.F
f77 -D_CS_HAVE_XML    			               -O2 -c memini.F
/tmp/fpp.04399.0.f:
	memini:
memkep.F
f77 -D_CS_HAVE_XML    			               -O2 -c memkep.F
/tmp/fpp.04407.0.f:
	memkep:
memkom.F
f77 -D_CS_HAVE_XML    			               -O2 -c memkom.F
/tmp/fpp.04415.0.f:
	memkom:
memnav.F
f77 -D_CS_HAVE_XML    			               -O2 -c memnav.F
/tmp/fpp.04423.0.f:
	memnav:
memnvc.F
f77 -D_CS_HAVE_XML    			               -O2 -c memnvc.F
/tmp/fpp.04431.0.f:
	memnvc:
mempdc.F
f77 -D_CS_HAVE_XML    			               -O2 -c mempdc.F
/tmp/fpp.04439.0.f:
	mempdc:
mempgr.F
f77 -D_CS_HAVE_XML    			               -O2 -c mempgr.F
/tmp/fpp.04449.0.f:
	mempgr:
memphy.F
f77 -D_CS_HAVE_XML    			               -O2 -c memphy.F
/tmp/fpp.04457.0.f:
	memphy:
memrij.F
f77 -D_CS_HAVE_XML    			               -O2 -c memrij.F
/tmp/fpp.04465.0.f:
	memrij:
memsca.F
f77 -D_CS_HAVE_XML    			               -O2 -c memsca.F
/tmp/fpp.04473.0.f:
	memsca:
memt1d.F
f77 -D_CS_HAVE_XML    			               -O2 -c memt1d.F
/tmp/fpp.04481.0.f:
	memt1d:
memtri.F
f77 -D_CS_HAVE_XML    			               -O2 -c memtri.F
/tmp/fpp.04489.0.f:
	memtri:
memtsm.F
f77 -D_CS_HAVE_XML    			               -O2 -c memtsm.F
/tmp/fpp.04497.0.f:
	memtsm:
memv2f.F
f77 -D_CS_HAVE_XML    			               -O2 -c memv2f.F
/tmp/fpp.04505.0.f:
	memv2f:
memvor.F
f77 -D_CS_HAVE_XML    			               -O2 -c memvor.F
/tmp/fpp.04513.0.f:
	memvor:
modini.F
f77 -D_CS_HAVE_XML    			               -O2 -c modini.F
/tmp/fpp.04521.0.f:
	modini:
modpar.F
f77 -D_CS_HAVE_XML    			               -O2 -c modpar.F
/tmp/fpp.04549.0.f:
	modpar:
navsto.F
f77 -D_CS_HAVE_XML    			               -O2 -c navsto.F
/tmp/fpp.04557.0.f:
	navsto:
newmrk.F
f77 -D_CS_HAVE_XML    			               -O2 -c newmrk.F
/tmp/fpp.04565.0.f:
	newmrk:
numvec.F
f77 -D_CS_HAVE_XML    			               -O2 -c numvec.F
/tmp/fpp.04573.0.f:
	numvec:
ordita.F
f77 -D_CS_HAVE_XML    			               -O2 -c ordita.F
/tmp/fpp.04581.0.f:
	ordita:
parge1.F
f77 -D_CS_HAVE_XML    			               -O2 -c parge1.F
/tmp/fpp.04589.0.f:
	parge1:
pergra.F
f77 -D_CS_HAVE_XML    			               -O2 -c pergra.F
/tmp/fpp.04597.0.f:
	pergra:
perinr.F
f77 -D_CS_HAVE_XML    			               -O2 -c perinr.F
/tmp/fpp.04605.0.f:
	perinr:
perinu.F
f77 -D_CS_HAVE_XML    			               -O2 -c perinu.F
/tmp/fpp.04613.0.f:
	perinu:
phyvar.F
f77 -D_CS_HAVE_XML    			               -O2 -c phyvar.F
/tmp/fpp.04621.0.f:
	phyvar:
postlc.F
f77 -D_CS_HAVE_XML    			               -O2 -c postlc.F
/tmp/fpp.04629.0.f:
	postlc:
ppcabs.F
f77 -D_CS_HAVE_XML    			               -O2 -c ppcabs.F
/tmp/fpp.04637.0.f:
	ppcabs:
ppclim.F
f77 -D_CS_HAVE_XML    			               -O2 -c ppclim.F
/tmp/fpp.04645.0.f:
	ppclim:
ppcsca.F
f77 -D_CS_HAVE_XML    			               -O2 -c ppcsca.F
/tmp/fpp.04653.0.f:
	ppcsca:
ppini1.F
f77 -D_CS_HAVE_XML    			               -O2 -c ppini1.F
/tmp/fpp.04661.0.f:
	ppini1:
ppinii.F
f77 -D_CS_HAVE_XML    			               -O2 -c ppinii.F
/tmp/fpp.04669.0.f:
	ppinii:
ppiniv.F
f77 -D_CS_HAVE_XML    			               -O2 -c ppiniv.F
/tmp/fpp.04677.0.f:
	ppiniv:
pplecd.F
f77 -D_CS_HAVE_XML    			               -O2 -c pplecd.F
/tmp/fpp.04685.0.f:
	pplecd:
ppphyv.F
f77 -D_CS_HAVE_XML    			               -O2 -c ppphyv.F
/tmp/fpp.04693.0.f:
	ppphyv:
ppprcl.F
f77 -D_CS_HAVE_XML    			               -O2 -c ppprcl.F
/tmp/fpp.04701.0.f:
	ppprcl:
ppprop.F
f77 -D_CS_HAVE_XML    			               -O2 -c ppprop.F
/tmp/fpp.04709.0.f:
	ppprop:
ppray4.F
f77 -D_CS_HAVE_XML    			               -O2 -c ppray4.F
/tmp/fpp.04717.0.f:
	ppray4:
pptbht.F
f77 -D_CS_HAVE_XML    			               -O2 -c pptbht.F
/tmp/fpp.04725.0.f:
	pptbht:
pptssc.F
f77 -D_CS_HAVE_XML    			               -O2 -c pptssc.F
/tmp/fpp.04733.0.f:
	pptssc:
pptycl.F
f77 -D_CS_HAVE_XML    			               -O2 -c pptycl.F
/tmp/fpp.04741.0.f:
	pptycl:
ppvarp.F
f77 -D_CS_HAVE_XML    			               -O2 -c ppvarp.F
/tmp/fpp.04749.0.f:
	ppvarp:
prcpol.F
f77 -D_CS_HAVE_XML    			               -O2 -c prcpol.F
/tmp/fpp.04757.0.f:
	prcpol:
precli.F
f77 -D_CS_HAVE_XML    			               -O2 -c precli.F
/tmp/fpp.04765.0.f:
	precli:
preduv.F
f77 -D_CS_HAVE_XML    			               -O2 -c preduv.F
/tmp/fpp.04773.0.f:
	preduv:
premgr.F
f77 -D_CS_HAVE_XML    			               -O2 -c premgr.F
/tmp/fpp.04781.0.f:
	premgr:
prmoy0.F
f77 -D_CS_HAVE_XML    			               -O2 -c prmoy0.F
/tmp/fpp.04789.0.f:
	prmoy0:
prods2.F
f77 -D_CS_HAVE_XML    			               -O2 -c prods2.F
/tmp/fpp.04797.0.f:
	prods2:
prods3.F
f77 -D_CS_HAVE_XML    			               -O2 -c prods3.F
/tmp/fpp.04805.0.f:
	prods3:
prodsc.F
f77 -D_CS_HAVE_XML    			               -O2 -c prodsc.F
/tmp/fpp.04813.0.f:
	prodsc:
projts.F
f77 -D_CS_HAVE_XML    			               -O2 -c projts.F
/tmp/fpp.04821.0.f:
	projts:
prolon.F
f77 -D_CS_HAVE_XML    			               -O2 -c prolon.F
/tmp/fpp.04829.0.f:
	prolon:
promav.F
f77 -D_CS_HAVE_XML    			               -O2 -c promav.F
/tmp/fpp.04837.0.f:
	promav:
proxav.F
f77 -D_CS_HAVE_XML    			               -O2 -c proxav.F
/tmp/fpp.04845.0.f:
	proxav:
rasize.F
f77 -D_CS_HAVE_XML    			               -O2 -c rasize.F
/tmp/fpp.04853.0.f:
	rasize:
recvmc.F
f77 -D_CS_HAVE_XML    			               -O2 -c recvmc.F
/tmp/fpp.04861.0.f:
	recvmc:
reseps.F
f77 -D_CS_HAVE_XML    			               -O2 -c reseps.F
/tmp/fpp.04869.0.f:
	reseps:
resmgr.F
f77 -D_CS_HAVE_XML    			               -O2 -c resmgr.F
/tmp/fpp.04877.0.f:
	resmgr:
resolp.F
f77 -D_CS_HAVE_XML    			               -O2 -c resolp.F
/tmp/fpp.04885.0.f:
	resolp:
resrij.F
f77 -D_CS_HAVE_XML    			               -O2 -c resrij.F
/tmp/fpp.04893.0.f:
	resrij:
resssg.F
f77 -D_CS_HAVE_XML    			               -O2 -c resssg.F
/tmp/fpp.04901.0.f:
	resssg:
resv2f.F
f77 -D_CS_HAVE_XML    			               -O2 -c resv2f.F
/tmp/fpp.04909.0.f:
	resv2f:
rijech.F
f77 -D_CS_HAVE_XML    			               -O2 -c rijech.F
/tmp/fpp.04917.0.f:
	rijech:
rijthe.F
f77 -D_CS_HAVE_XML    			               -O2 -c rijthe.F
/tmp/fpp.04925.0.f:
	rijthe:
scalai.F
f77 -D_CS_HAVE_XML    			               -O2 -c scalai.F
/tmp/fpp.04933.0.f:
	scalai:
schtmp.F
f77 -D_CS_HAVE_XML    			               -O2 -c schtmp.F
/tmp/fpp.04941.0.f:
	schtmp:
strdep.F
f77 -D_CS_HAVE_XML    			               -O2 -c strdep.F
/tmp/fpp.04949.0.f:
	strdep:
strini.F
f77 -D_CS_HAVE_XML    			               -O2 -c strini.F
/tmp/fpp.04957.0.f:
	strini:
strpre.F
f77 -D_CS_HAVE_XML    			               -O2 -c strpre.F
/tmp/fpp.04965.0.f:
	strpre:
tdesi1.F
f77 -D_CS_HAVE_XML    			               -O2 -c tdesi1.F
/tmp/fpp.04973.0.f:
	tdesi1:
testel.F
f77 -D_CS_HAVE_XML    			               -O2 -c testel.F
/tmp/fpp.04981.0.f:
	testel:
tridim.F
f77 -D_CS_HAVE_XML    			               -O2 -c tridim.F
/tmp/fpp.04989.0.f:
	tridim:
tsepdc.F
f77 -D_CS_HAVE_XML    			               -O2 -c tsepdc.F
/tmp/fpp.04997.0.f:
	tsepdc:
turbke.F
f77 -D_CS_HAVE_XML    			               -O2 -c turbke.F
/tmp/fpp.05005.0.f:
	turbke:
turbkw.F
f77 -D_CS_HAVE_XML    			               -O2 -c turbkw.F
/tmp/fpp.05013.0.f:
	turbkw:
turent.F
f77 -D_CS_HAVE_XML    			               -O2 -c turent.F
/tmp/fpp.05021.0.f:
	keendb:
	keenin:
turrij.F
f77 -D_CS_HAVE_XML    			               -O2 -c turrij.F
/tmp/fpp.05029.0.f:
	turrij:
typecl.F
f77 -D_CS_HAVE_XML    			               -O2 -c typecl.F
/tmp/fpp.05037.0.f:
	typecl:
undscr.F
f77 -D_CS_HAVE_XML    			               -O2 -c undscr.F
/tmp/fpp.05045.0.f:
	undscr:
usalcl.F
f77 -D_CS_HAVE_XML    			               -O2 -c usalcl.F
/tmp/fpp.05053.0.f:
	usalcl:
"usalcl.F", line 456: Warning: local variable "igr5" never used
"usalcl.F", line 456: Warning: local variable "igr6" never used
"usalcl.F", line 456: Warning: local variable "ico4" never used
usalin.F
f77 -D_CS_HAVE_XML    			               -O2 -c usalin.F
/tmp/fpp.05061.0.f:
	usalin:
usclim.F
f77 -D_CS_HAVE_XML    			               -O2 -c usclim.F
/tmp/fpp.05069.0.f:
	usclim:
"usclim.F", line 483: Warning: local variable "igr5" never used
"usclim.F", line 483: Warning: local variable "igr6" never used
"usclim.F", line 483: Warning: local variable "ico4" never used
usdpst.F
f77 -D_CS_HAVE_XML    			               -O2 -c usdpst.F
/tmp/fpp.05077.0.f:
	usdpst:
ushist.F
f77 -D_CS_HAVE_XML    			               -O2 -c ushist.F
/tmp/fpp.05085.0.f:
	ushist:
usini1.F
f77 -D_CS_HAVE_XML    			               -O2 -c usini1.F
/tmp/fpp.05093.0.f:
	usipph:
	usinsc:
	usipsc:
	usipgl:
	usipsu:
	usipes:
usiniv.F
f77 -D_CS_HAVE_XML    			               -O2 -c usiniv.F
/tmp/fpp.05101.0.f:
	usiniv:
uskpdc.F
f77 -D_CS_HAVE_XML    			               -O2 -c uskpdc.F
/tmp/fpp.05109.0.f:
	uskpdc:
usmodg.F
f77 -D_CS_HAVE_XML    			               -O2 -c usmodg.F
/tmp/fpp.05117.0.f:
	usmodg:
usmpst.F
f77 -D_CS_HAVE_XML    			               -O2 -c usmpst.F
/tmp/fpp.05125.0.f:
	usmpst:
usnpst.F
f77 -D_CS_HAVE_XML    			               -O2 -c usnpst.F
/tmp/fpp.05133.0.f:
	usnpst:
usphyv.F
f77 -D_CS_HAVE_XML    			               -O2 -c usphyv.F
/tmp/fpp.05141.0.f:
	usphyv:
usppmo.F
f77 -D_CS_HAVE_XML    			               -O2 -c usppmo.F
/tmp/fpp.05149.0.f:
	usppmo:
usproj.F
f77 -D_CS_HAVE_XML    			               -O2 -c usproj.F
/tmp/fpp.05157.0.f:
	usproj:
uspt1d.F
f77 -D_CS_HAVE_XML    			               -O2 -c uspt1d.F
/tmp/fpp.05165.0.f:
	uspt1d:
usrubm.F
f77 -D_CS_HAVE_XML    			               -O2 -c usrubm.F
/tmp/fpp.05173.0.f:
	usrubm:
usruet.F
f77 -D_CS_HAVE_XML    			               -O2 -c usruet.F
/tmp/fpp.05181.0.f:
	usruet:
ussmag.F
f77 -D_CS_HAVE_XML    			               -O2 -c ussmag.F
/tmp/fpp.05189.0.f:
	ussmag:
usstru.F
f77 -D_CS_HAVE_XML    			               -O2 -c usstru.F
/tmp/fpp.05197.0.f:
	usstr1:
	usstr2:
"usstru.F", line 456: Warning: local variable "fz" never used
usthht.F
f77 -D_CS_HAVE_XML    			               -O2 -c usthht.F
/tmp/fpp.05205.0.f:
	usthht:
"usthht.F", line 164: Warning: statement cannot be reached
ustske.F
f77 -D_CS_HAVE_XML    			               -O2 -c ustske.F
/tmp/fpp.05213.0.f:
	ustske:
ustskw.F
f77 -D_CS_HAVE_XML    			               -O2 -c ustskw.F
/tmp/fpp.05221.0.f:
	ustskw:
ustsma.F
f77 -D_CS_HAVE_XML    			               -O2 -c ustsma.F
/tmp/fpp.05229.0.f:
	ustsma:
ustsns.F
f77 -D_CS_HAVE_XML    			               -O2 -c ustsns.F
/tmp/fpp.05237.0.f:
	ustsns:
ustsri.F
f77 -D_CS_HAVE_XML    			               -O2 -c ustsri.F
/tmp/fpp.05245.0.f:
	ustsri:
ustssc.F
f77 -D_CS_HAVE_XML    			               -O2 -c ustssc.F
/tmp/fpp.05253.0.f:
	ustssc:
ustsv2.F
f77 -D_CS_HAVE_XML    			               -O2 -c ustsv2.F
/tmp/fpp.05261.0.f:
	ustsv2:
usvima.F
f77 -D_CS_HAVE_XML    			               -O2 -c usvima.F
/tmp/fpp.05269.0.f:
	usvima:
usvist.F
f77 -D_CS_HAVE_XML    			               -O2 -c usvist.F
/tmp/fpp.05277.0.f:
	usvist:
usvort.F
f77 -D_CS_HAVE_XML    			               -O2 -c usvort.F
/tmp/fpp.05285.0.f:
	usvort:
	phidat:
usvpst.F
f77 -D_CS_HAVE_XML    			               -O2 -c usvpst.F
/tmp/fpp.05293.0.f:
	usvpst:
v2nutp.F
f77 -D_CS_HAVE_XML    			               -O2 -c v2nutp.F
/tmp/fpp.05301.0.f:
	v2nutp:
vandri.F
f77 -D_CS_HAVE_XML    			               -O2 -c vandri.F
/tmp/fpp.05309.0.f:
	vandri:
varpos.F
f77 -D_CS_HAVE_XML    			               -O2 -c varpos.F
/tmp/fpp.05317.0.f:
	varpos:
vectds.F
f77 -D_CS_HAVE_XML    			               -O2 -c vectds.F
/tmp/fpp.05325.0.f:
	vectds:
vericl.F
f77 -D_CS_HAVE_XML    			               -O2 -c vericl.F
/tmp/fpp.05333.0.f:
	vericl:
verini.F
f77 -D_CS_HAVE_XML    			               -O2 -c verini.F
/tmp/fpp.05341.0.f:
	verini:
verlon.F
f77 -D_CS_HAVE_XML    			               -O2 -c verlon.F
/tmp/fpp.05349.0.f:
	verlon:
vert1d.F
f77 -D_CS_HAVE_XML    			               -O2 -c vert1d.F
/tmp/fpp.05357.0.f:
	vert1d:
viscfa.F
f77 -D_CS_HAVE_XML    			               -O2 -c viscfa.F
/tmp/fpp.05365.0.f:
	viscfa:
visdyn.F
f77 -D_CS_HAVE_XML    			               -O2 -c visdyn.F
/tmp/fpp.05373.0.f:
	visdyn:
vislmg.F
f77 -D_CS_HAVE_XML    			               -O2 -c vislmg.F
/tmp/fpp.05381.0.f:
	vislmg:
visort.F
f77 -D_CS_HAVE_XML    			               -O2 -c visort.F
/tmp/fpp.05389.0.f:
	visort:
vissec.F
f77 -D_CS_HAVE_XML    			               -O2 -c vissec.F
/tmp/fpp.05397.0.f:
	vissec:
vissma.F
f77 -D_CS_HAVE_XML    			               -O2 -c vissma.F
/tmp/fpp.05405.0.f:
	vissma:
vissst.F
f77 -D_CS_HAVE_XML    			               -O2 -c vissst.F
/tmp/fpp.05413.0.f:
	vissst:
vor2cl.F
f77 -D_CS_HAVE_XML    			               -O2 -c vor2cl.F
/tmp/fpp.05421.0.f:
	vor2cl:
vordep.F
f77 -D_CS_HAVE_XML    			               -O2 -c vordep.F
/tmp/fpp.05429.0.f:
	vordep:
vorimp.F
f77 -D_CS_HAVE_XML    			               -O2 -c vorimp.F
/tmp/fpp.05437.0.f:
	vorimp:
vorin0.F
f77 -D_CS_HAVE_XML    			               -O2 -c vorin0.F
/tmp/fpp.05445.0.f:
	vorin0:
vorini.F
f77 -D_CS_HAVE_XML    			               -O2 -c vorini.F
/tmp/fpp.05453.0.f:
	vorini:
vorlgv.F
f77 -D_CS_HAVE_XML    			               -O2 -c vorlgv.F
/tmp/fpp.05461.0.f:
	vorlgv:
vorpre.F
f77 -D_CS_HAVE_XML    			               -O2 -c vorpre.F
/tmp/fpp.05469.0.f:
	vorpre:
vortex.F
f77 -D_CS_HAVE_XML    			               -O2 -c vortex.F
/tmp/fpp.05477.0.f:
	vortex:
vorver.F
f77 -D_CS_HAVE_XML    			               -O2 -c vorver.F
/tmp/fpp.05485.0.f:
	vorver:
vorvit.F
f77 -D_CS_HAVE_XML    			               -O2 -c vorvit.F
/tmp/fpp.05493.0.f:
	vorvit:
zufall.F
f77 -D_CS_HAVE_XML    			               -O2 -c zufall.F
/tmp/fpp.05501.0.f:
	zufall:
	zufalli:
	normalen:
	normal00:
	fische:
 BLOCK DATA:
***  Compilation terminée

***  Création de la librairie
***  Création de la librairie terminée

***  Installation de la librairie
***  Installation de la librairie terminée


   Generation du fichier resume
/home/saturne/Noyau/ncs-1.3.d/build/SunOS/BASE/.readmeBASE
   Nettoyage avec MOD=BASE OPT=
***  "make" dans un répertoire de génération de la librairie
[7m *** Fin de la construction de BASE
[m[m
[7m
 *** Construction de CFBL sous SunOS
[m[m
   Generation du repertoire CFBL
   Lien sur le Makefile
   Lancement de make avec MOD=CFBL OPT=

***  Compilation/lien Code_Saturne  version 1.3.d
***  Système SunOS

***  "make" dans un répertoire de génération de la librairie
***  Compilation
cfbsc2.F
f77 -D_CS_HAVE_XML    			               -O2 -c cfbsc2.F
/tmp/fpp.06640.0.f:
	cfbsc2:
cfbsc3.F
f77 -D_CS_HAVE_XML    			               -O2 -c cfbsc3.F
/tmp/fpp.06648.0.f:
	cfbsc3:
cfcdts.F
f77 -D_CS_HAVE_XML    			               -O2 -c cfcdts.F
/tmp/fpp.06656.0.f:
	cfcdts:
cfdivs.F
f77 -D_CS_HAVE_XML    			               -O2 -c cfdivs.F
/tmp/fpp.06664.0.f:
	cfdivs:
cfdttv.F
f77 -D_CS_HAVE_XML    			               -O2 -c cfdttv.F
/tmp/fpp.06674.0.f:
	cfdttv:
cfener.F
f77 -D_CS_HAVE_XML    			               -O2 -c cfener.F
/tmp/fpp.06682.0.f:
	cfener:
cfini1.F
f77 -D_CS_HAVE_XML    			               -O2 -c cfini1.F
/tmp/fpp.06690.0.f:
	cfini1:
cfiniv.F
f77 -D_CS_HAVE_XML    			               -O2 -c cfiniv.F
/tmp/fpp.06698.0.f:
	cfiniv:
cfmsfl.F
f77 -D_CS_HAVE_XML    			               -O2 -c cfmsfl.F
/tmp/fpp.06706.0.f:
	cfmsfl:
cfmsgs.F
f77 -D_CS_HAVE_XML    			               -O2 -c cfmsgs.F
/tmp/fpp.06714.0.f:
	cfmsgs:
cfmsvl.F
f77 -D_CS_HAVE_XML    			               -O2 -c cfmsvl.F
/tmp/fpp.06722.0.f:
	cfmsvl:
cfmsvs.F
f77 -D_CS_HAVE_XML    			               -O2 -c cfmsvs.F
/tmp/fpp.06730.0.f:
	cfmsvs:
cfphyv.F
f77 -D_CS_HAVE_XML    			               -O2 -c cfphyv.F
/tmp/fpp.06738.0.f:
	cfphyv:
cfprop.F
f77 -D_CS_HAVE_XML    			               -O2 -c cfprop.F
/tmp/fpp.06746.0.f:
	cfprop:
cfqdmv.F
f77 -D_CS_HAVE_XML    			               -O2 -c cfqdmv.F
/tmp/fpp.06754.0.f:
	cfqdmv:
cfrusb.F
f77 -D_CS_HAVE_XML    			               -O2 -c cfrusb.F
/tmp/fpp.06762.0.f:
	cfrusb:
cfvarp.F
f77 -D_CS_HAVE_XML    			               -O2 -c cfvarp.F
/tmp/fpp.06770.0.f:
	cfvarp:
cfxtcl.F
f77 -D_CS_HAVE_XML    			               -O2 -c cfxtcl.F
/tmp/fpp.06778.0.f:
	cfxtcl:
memcfe.F
f77 -D_CS_HAVE_XML    			               -O2 -c memcfe.F
/tmp/fpp.06786.0.f:
	memcfe:
memcfm.F
f77 -D_CS_HAVE_XML    			               -O2 -c memcfm.F
/tmp/fpp.06794.0.f:
	memcfm:
memcft.F
f77 -D_CS_HAVE_XML    			               -O2 -c memcft.F
/tmp/fpp.06802.0.f:
	memcft:
memcfv.F
f77 -D_CS_HAVE_XML    			               -O2 -c memcfv.F
/tmp/fpp.06810.0.f:
	memcfv:
uscfcl.F
f77 -D_CS_HAVE_XML    			               -O2 -c uscfcl.F
/tmp/fpp.06818.0.f:
	uscfcl:
uscfpv.F
f77 -D_CS_HAVE_XML    			               -O2 -c uscfpv.F
/tmp/fpp.06826.0.f:
	uscfpv:
uscfth.F
f77 -D_CS_HAVE_XML    			               -O2 -c uscfth.F
/tmp/fpp.06834.0.f:
	uscfth:
uscfx1.F
f77 -D_CS_HAVE_XML    			               -O2 -c uscfx1.F
/tmp/fpp.06842.0.f:
	uscfx1:
uscfx2.F
f77 -D_CS_HAVE_XML    			               -O2 -c uscfx2.F
/tmp/fpp.06853.0.f:
	uscfx2:
uscfxi.F
f77 -D_CS_HAVE_XML    			               -O2 -c uscfxi.F
/tmp/fpp.06861.0.f:
	uscfxi:
***  Compilation terminée

***  Création de la librairie
***  Création de la librairie terminée

***  Installation de la librairie
***  Installation de la librairie terminée


   Generation du fichier resume
/home/saturne/Noyau/ncs-1.3.d/build/SunOS/CFBL/.readmeCFBL
   Nettoyage avec MOD=CFBL OPT=
***  "make" dans un répertoire de génération de la librairie
[7m *** Fin de la construction de CFBL
[m[m
[7m
 *** Construction de COGZ sous SunOS
[m[m
   Generation du repertoire COGZ
   Lien sur le Makefile
   Lancement de make avec MOD=COGZ OPT=

***  Compilation/lien Code_Saturne  version 1.3.d
***  Système SunOS

***  "make" dans un répertoire de génération de la librairie
***  Compilation
coini1.F
f77 -D_CS_HAVE_XML    			               -O2 -c coini1.F
/tmp/fpp.07810.0.f:
	coini1:
colecd.F
f77 -D_CS_HAVE_XML    			               -O2 -c colecd.F
/tmp/fpp.07818.0.f:
	colecd:
copdfr.F
f77 -D_CS_HAVE_XML    			               -O2 -c copdfr.F
/tmp/fpp.07826.0.f:
	copdfr:
coprop.F
f77 -D_CS_HAVE_XML    			               -O2 -c coprop.F
/tmp/fpp.07834.0.f:
	coprop:
cothht.F
f77 -D_CS_HAVE_XML    			               -O2 -c cothht.F
/tmp/fpp.07842.0.f:
	cothht:
covarp.F
f77 -D_CS_HAVE_XML    			               -O2 -c covarp.F
/tmp/fpp.07850.0.f:
	covarp:
d3phst.F
f77 -D_CS_HAVE_XML    			               -O2 -c d3phst.F
/tmp/fpp.07858.0.f:
	d3phst:
d3pini.F
f77 -D_CS_HAVE_XML    			               -O2 -c d3pini.F
/tmp/fpp.07866.0.f:
	d3pini:
d3pint.F
f77 -D_CS_HAVE_XML    			               -O2 -c d3pint.F
/tmp/fpp.07874.0.f:
	d3pint:
d3pphy.F
f77 -D_CS_HAVE_XML    			               -O2 -c d3pphy.F
/tmp/fpp.07882.0.f:
	d3pphy:
d3ptcl.F
f77 -D_CS_HAVE_XML    			               -O2 -c d3ptcl.F
/tmp/fpp.07890.0.f:
	d3ptcl:
d3pver.F
f77 -D_CS_HAVE_XML    			               -O2 -c d3pver.F
/tmp/fpp.07898.0.f:
	d3pver:
ebuini.F
f77 -D_CS_HAVE_XML    			               -O2 -c ebuini.F
/tmp/fpp.07906.0.f:
	ebuini:
ebuphy.F
f77 -D_CS_HAVE_XML    			               -O2 -c ebuphy.F
/tmp/fpp.07914.0.f:
	ebuphy:
ebutcl.F
f77 -D_CS_HAVE_XML    			               -O2 -c ebutcl.F
/tmp/fpp.07922.0.f:
	ebutcl:
ebutss.F
f77 -D_CS_HAVE_XML    			               -O2 -c ebutss.F
/tmp/fpp.07930.0.f:
	ebutss:
ebuver.F
f77 -D_CS_HAVE_XML    			               -O2 -c ebuver.F
/tmp/fpp.07938.0.f:
	ebuver:
lwcgfu.F
f77 -D_CS_HAVE_XML    			               -O2 -c lwcgfu.F
/tmp/fpp.07946.0.f:
	lwcgfu:
lwcini.F
f77 -D_CS_HAVE_XML    			               -O2 -c lwcini.F
/tmp/fpp.07954.0.f:
	lwcini:
lwcphy.F
f77 -D_CS_HAVE_XML    			               -O2 -c lwcphy.F
/tmp/fpp.07962.0.f:
	lwcphy:
lwctcl.F
f77 -D_CS_HAVE_XML    			               -O2 -c lwctcl.F
/tmp/fpp.07970.0.f:
	lwctcl:
lwctss.F
f77 -D_CS_HAVE_XML    			               -O2 -c lwctss.F
/tmp/fpp.07978.0.f:
	lwctss:
lwcurl.F
f77 -D_CS_HAVE_XML    			               -O2 -c lwcurl.F
/tmp/fpp.07986.0.f:
	lwcurl:
lwcver.F
f77 -D_CS_HAVE_XML    			               -O2 -c lwcver.F
/tmp/fpp.07994.0.f:
	lwcver:
pdflwc.F
f77 -D_CS_HAVE_XML    			               -O2 -c pdflwc.F
/tmp/fpp.08002.0.f:
	pdflwc:
"pdflwc.F", line 150: Warning: local variable "ipckab" never used
"pdflwc.F", line 150: Warning: local variable "ipt4" never used
"pdflwc.F", line 150: Warning: local variable "ipt3" never used
pdfpp3.F
f77 -D_CS_HAVE_XML    			               -O2 -c pdfpp3.F
/tmp/fpp.08010.0.f:
	pdfpp3:
pdfpp4.F
f77 -D_CS_HAVE_XML    			               -O2 -c pdfpp4.F
/tmp/fpp.08018.0.f:
	pdfpp4:
"pdfpp4.F", line 129: Warning: local variable "ipckab" never used
"pdfpp4.F", line 129: Warning: local variable "ipt4" never used
"pdfpp4.F", line 129: Warning: local variable "ipt3" never used
"pdfpp4.F", line 149: Warning: local variable "cstva2" never used
"pdfpp4.F", line 162: Warning: local variable "vymn" never used
usd3p1.F
f77 -D_CS_HAVE_XML    			               -O2 -c usd3p1.F
/tmp/fpp.08026.0.f:
	usd3p1:
usd3pc.F
f77 -D_CS_HAVE_XML    			               -O2 -c usd3pc.F
/tmp/fpp.08034.0.f:
	usd3pc:
usd3pi.F
f77 -D_CS_HAVE_XML    			               -O2 -c usd3pi.F
/tmp/fpp.08042.0.f:
	usd3pi:
usebu1.F
f77 -D_CS_HAVE_XML    			               -O2 -c usebu1.F
/tmp/fpp.08050.0.f:
	usebu1:
usebuc.F
f77 -D_CS_HAVE_XML    			               -O2 -c usebuc.F
/tmp/fpp.08058.0.f:
	usebuc:
usebui.F
f77 -D_CS_HAVE_XML    			               -O2 -c usebui.F
/tmp/fpp.08066.0.f:
	usebui:
uslwc1.F
f77 -D_CS_HAVE_XML    			               -O2 -c uslwc1.F
/tmp/fpp.08074.0.f:
	uslwc1:
uslwcc.F
f77 -D_CS_HAVE_XML    			               -O2 -c uslwcc.F
/tmp/fpp.08082.0.f:
	uslwcc:
uslwci.F
f77 -D_CS_HAVE_XML    			               -O2 -c uslwci.F
/tmp/fpp.08090.0.f:
	uslwci:
***  Compilation terminée

***  Création de la librairie
***  Création de la librairie terminée

***  Installation de la librairie
***  Installation de la librairie terminée


   Generation du fichier resume
/home/saturne/Noyau/ncs-1.3.d/build/SunOS/COGZ/.readmeCOGZ
   Nettoyage avec MOD=COGZ OPT=
***  "make" dans un répertoire de génération de la librairie
[7m *** Fin de la construction de COGZ
[m[m
[7m
 *** Construction de CPLV sous SunOS
[m[m
   Generation du repertoire CPLV
   Lien sur le Makefile
   Lancement de make avec MOD=CPLV OPT=

***  Compilation/lien Code_Saturne  version 1.3.d
***  Système SunOS

***  "make" dans un répertoire de génération de la librairie
***  Compilation
cpcym1.F
f77 -D_CS_HAVE_XML    			               -O2 -c cpcym1.F
/tmp/fpp.09113.0.f:
	cpcym1:
cpflux.F
f77 -D_CS_HAVE_XML    			               -O2 -c cpflux.F
/tmp/fpp.09121.0.f:
	cpflux:
cpini1.F
f77 -D_CS_HAVE_XML    			               -O2 -c cpini1.F
/tmp/fpp.09129.0.f:
	cpini1:
cpiniv.F
f77 -D_CS_HAVE_XML    			               -O2 -c cpiniv.F
/tmp/fpp.09137.0.f:
	cpiniv:
cplecd.F
f77 -D_CS_HAVE_XML    			               -O2 -c cplecd.F
/tmp/fpp.09145.0.f:
	cplecd:
cplin1.F
f77 -D_CS_HAVE_XML    			               -O2 -c cplin1.F
/tmp/fpp.09153.0.f:
	cplin1:
cplini.F
f77 -D_CS_HAVE_XML    			               -O2 -c cplini.F
/tmp/fpp.09161.0.f:
	cplini:
cplph1.F
f77 -D_CS_HAVE_XML    			               -O2 -c cplph1.F
/tmp/fpp.09169.0.f:
	cplph1:
cplphy.F
f77 -D_CS_HAVE_XML    			               -O2 -c cplphy.F
/tmp/fpp.09177.0.f:
	cplphy:
cplpro.F
f77 -D_CS_HAVE_XML    			               -O2 -c cplpro.F
/tmp/fpp.09185.0.f:
	cplpro:
cpltcl.F
f77 -D_CS_HAVE_XML    			               -O2 -c cpltcl.F
/tmp/fpp.09193.0.f:
	cpltcl:
cpltss.F
f77 -D_CS_HAVE_XML    			               -O2 -c cpltss.F
/tmp/fpp.09201.0.f:
	cpltss:
cpltsv.F
f77 -D_CS_HAVE_XML    			               -O2 -c cpltsv.F
/tmp/fpp.09209.0.f:
	cpltsv:
cplvar.F
f77 -D_CS_HAVE_XML    			               -O2 -c cplvar.F
/tmp/fpp.09217.0.f:
	cplvar:
cplver.F
f77 -D_CS_HAVE_XML    			               -O2 -c cplver.F
/tmp/fpp.09225.0.f:
	cplver:
cplym1.F
f77 -D_CS_HAVE_XML    			               -O2 -c cplym1.F
/tmp/fpp.09233.0.f:
	cplym1:
cppdf4.F
f77 -D_CS_HAVE_XML    			               -O2 -c cppdf4.F
/tmp/fpp.09241.0.f:
	cppdf4:
cppdf5.F
f77 -D_CS_HAVE_XML    			               -O2 -c cppdf5.F
/tmp/fpp.09249.0.f:
	cppdf5:
cppdfr.F
f77 -D_CS_HAVE_XML    			               -O2 -c cppdfr.F
/tmp/fpp.09257.0.f:
	cppdfr:
cpphy1.F
f77 -D_CS_HAVE_XML    			               -O2 -c cpphy1.F
/tmp/fpp.09265.0.f:
	cpphy1:
cpphy2.F
f77 -D_CS_HAVE_XML    			               -O2 -c cpphy2.F
/tmp/fpp.09273.0.f:
	cpphy2:
cpphyv.F
f77 -D_CS_HAVE_XML    			               -O2 -c cpphyv.F
/tmp/fpp.09281.0.f:
	cpphyv:
cpprop.F
f77 -D_CS_HAVE_XML    			               -O2 -c cpprop.F
/tmp/fpp.09289.0.f:
	cpprop:
cpptcl.F
f77 -D_CS_HAVE_XML    			               -O2 -c cpptcl.F
/tmp/fpp.09297.0.f:
	cpptcl:
cprays.F
f77 -D_CS_HAVE_XML    			               -O2 -c cprays.F
/tmp/fpp.09305.0.f:
	cprays:
cpteh1.F
f77 -D_CS_HAVE_XML    			               -O2 -c cpteh1.F
/tmp/fpp.09313.0.f:
	cpteh1:
cpteh2.F
f77 -D_CS_HAVE_XML    			               -O2 -c cpteh2.F
/tmp/fpp.09321.0.f:
	cpteh2:
cptehm.F
f77 -D_CS_HAVE_XML    			               -O2 -c cptehm.F
/tmp/fpp.09329.0.f:
	cptehm:
cpthp1.F
f77 -D_CS_HAVE_XML    			               -O2 -c cpthp1.F
/tmp/fpp.09337.0.f:
	cpthp1:
cpthp2.F
f77 -D_CS_HAVE_XML    			               -O2 -c cpthp2.F
/tmp/fpp.09345.0.f:
	cpthp2:
cptssc.F
f77 -D_CS_HAVE_XML    			               -O2 -c cptssc.F
/tmp/fpp.09353.0.f:
	cptssc:
cptsvc.F
f77 -D_CS_HAVE_XML    			               -O2 -c cptsvc.F
/tmp/fpp.09361.0.f:
	cptsvc:
cptsvi.F
f77 -D_CS_HAVE_XML    			               -O2 -c cptsvi.F
/tmp/fpp.09369.0.f:
	cptsvi:
cpvarp.F
f77 -D_CS_HAVE_XML    			               -O2 -c cpvarp.F
/tmp/fpp.09377.0.f:
	cpvarp:
cpveri.F
f77 -D_CS_HAVE_XML    			               -O2 -c cpveri.F
/tmp/fpp.09385.0.f:
	cpveri:
memcp1.F
f77 -D_CS_HAVE_XML    			               -O2 -c memcp1.F
/tmp/fpp.09394.0.f:
	memcp1:
uscpcl.F
f77 -D_CS_HAVE_XML    			               -O2 -c uscpcl.F
/tmp/fpp.09402.0.f:
	uscpcl:
uscpi1.F
f77 -D_CS_HAVE_XML    			               -O2 -c uscpi1.F
/tmp/fpp.09410.0.f:
	uscpi1:
uscpiv.F
f77 -D_CS_HAVE_XML    			               -O2 -c uscpiv.F
/tmp/fpp.09418.0.f:
	uscpiv:
uscpl1.F
f77 -D_CS_HAVE_XML    			               -O2 -c uscpl1.F
/tmp/fpp.09426.0.f:
	uscpl1:
uscplc.F
f77 -D_CS_HAVE_XML    			               -O2 -c uscplc.F
/tmp/fpp.09434.0.f:
	uscplc:
***  Compilation terminée

***  Création de la librairie
***  Création de la librairie terminée

***  Installation de la librairie
***  Installation de la librairie terminée


   Generation du fichier resume
/home/saturne/Noyau/ncs-1.3.d/build/SunOS/CPLV/.readmeCPLV
   Nettoyage avec MOD=CPLV OPT=
***  "make" dans un répertoire de génération de la librairie
[7m *** Fin de la construction de CPLV
[m[m
[7m
 *** Construction de ELEC sous SunOS
[m[m
   Generation du repertoire ELEC
   Lien sur le Makefile
   Lancement de make avec MOD=ELEC OPT=

***  Compilation/lien Code_Saturne  version 1.3.d
***  Système SunOS

***  "make" dans un répertoire de génération de la librairie
***  Compilation
elflux.F
f77 -D_CS_HAVE_XML    			               -O2 -c elflux.F
/tmp/fpp.10327.0.f:
	elflux:
elini1.F
f77 -D_CS_HAVE_XML    			               -O2 -c elini1.F
/tmp/fpp.10335.0.f:
	elini1:
eliniv.F
f77 -D_CS_HAVE_XML    			               -O2 -c eliniv.F
/tmp/fpp.10343.0.f:
	eliniv:
ellecd.F
f77 -D_CS_HAVE_XML    			               -O2 -c ellecd.F
/tmp/fpp.10351.0.f:
	ellecd:
elphyv.F
f77 -D_CS_HAVE_XML    			               -O2 -c elphyv.F
/tmp/fpp.10359.0.f:
	elphyv:
elprop.F
f77 -D_CS_HAVE_XML    			               -O2 -c elprop.F
/tmp/fpp.10367.0.f:
	elprop:
elthht.F
f77 -D_CS_HAVE_XML    			               -O2 -c elthht.F
/tmp/fpp.10375.0.f:
	elthht:
eltssc.F
f77 -D_CS_HAVE_XML    			               -O2 -c eltssc.F
/tmp/fpp.10383.0.f:
	eltssc:
elvarp.F
f77 -D_CS_HAVE_XML    			               -O2 -c elvarp.F
/tmp/fpp.10391.0.f:
	elvarp:
elveri.F
f77 -D_CS_HAVE_XML    			               -O2 -c elveri.F
/tmp/fpp.10399.0.f:
	elveri:
uselcl.F
f77 -D_CS_HAVE_XML    			               -O2 -c uselcl.F
/tmp/fpp.10407.0.f:
	uselcl:
uselen.F
f77 -D_CS_HAVE_XML    			               -O2 -c uselen.F
/tmp/fpp.10415.0.f:
	uselen:
useli1.F
f77 -D_CS_HAVE_XML    			               -O2 -c useli1.F
/tmp/fpp.10423.0.f:
	useli1:
useliv.F
f77 -D_CS_HAVE_XML    			               -O2 -c useliv.F
/tmp/fpp.10431.0.f:
	useliv:
uselph.F
f77 -D_CS_HAVE_XML    			               -O2 -c uselph.F
/tmp/fpp.10441.0.f:
	uselph:
uselrc.F
f77 -D_CS_HAVE_XML    			               -O2 -c uselrc.F
/tmp/fpp.10449.0.f:
	uselrc:
usetcl.F
f77 -D_CS_HAVE_XML    			               -O2 -c usetcl.F
/tmp/fpp.10457.0.f:
	usetcl:
***  Compilation terminée

***  Création de la librairie
***  Création de la librairie terminée

***  Installation de la librairie
***  Installation de la librairie terminée


   Generation du fichier resume
/home/saturne/Noyau/ncs-1.3.d/build/SunOS/ELEC/.readmeELEC
   Nettoyage avec MOD=ELEC OPT=
***  "make" dans un répertoire de génération de la librairie
[7m *** Fin de la construction de ELEC
[m[m
[7m
 *** Construction de LAGR sous SunOS
[m[m
   Generation du repertoire LAGR
   Lien sur le Makefile
   Lancement de make avec MOD=LAGR OPT=

***  Compilation/lien Code_Saturne  version 1.3.d
***  Système SunOS

***  "make" dans un répertoire de génération de la librairie
***  Compilation
cs_lagrang.c
cc   -I/home/saturne/opt/bft-1.0.2/arch/SunOS/include -I/home/saturne/opt/fvm-0.6.1/arch/SunOS/include -I/home/saturne/opt/libxml2-2.6.19/include/libxml2 -D_POSIX_SOURCE -D_CS_HAVE_XML    		     	         -DNDEBUG  -Xa -xO3 -xinline=Orient3D_split -c cs_lagrang.c
diverv.F
f77 -D_CS_HAVE_XML    			               -O2 -c diverv.F
/tmp/fpp.11479.0.f:
	diverv:
enslag.F
f77 -D_CS_HAVE_XML    			               -O2 -c enslag.F
/tmp/fpp.11487.0.f:
	enslag:
enswaf.F
f77 -D_CS_HAVE_XML    			               -O2 -c enswaf.F
/tmp/fpp.11495.0.f:
	enswaf:
lagcar.F
f77 -D_CS_HAVE_XML    			               -O2 -c lagcar.F
/tmp/fpp.11505.0.f:
	lagcar:
lagcel.F
f77 -D_CS_HAVE_XML    			               -O2 -c lagcel.F
/tmp/fpp.11513.0.f:
	lagcel:
lagcou.F
f77 -D_CS_HAVE_XML    			               -O2 -c lagcou.F
/tmp/fpp.11521.0.f:
	lagcou:
lagdeb.F
f77 -D_CS_HAVE_XML    			               -O2 -c lagdeb.F
/tmp/fpp.11529.0.f:
	lagdeb:
lageli.F
f77 -D_CS_HAVE_XML    			               -O2 -c lageli.F
/tmp/fpp.11537.0.f:
	lageli:
lagent.F
f77 -D_CS_HAVE_XML    			               -O2 -c lagent.F
/tmp/fpp.11545.0.f:
	lagent:
lageqp.F
f77 -D_CS_HAVE_XML    			               -O2 -c lageqp.F
/tmp/fpp.11553.0.f:
	lageqp:
lagerr.F
f77 -D_CS_HAVE_XML    			               -O2 -c lagerr.F
/tmp/fpp.11561.0.f:
	lagerr:
lages1.F
f77 -D_CS_HAVE_XML    			               -O2 -c lages1.F
/tmp/fpp.11570.0.f:
	lages1:
lages2.F
f77 -D_CS_HAVE_XML    			               -O2 -c lages2.F
/tmp/fpp.11578.0.f:
	lages2:
lagesp.F
f77 -D_CS_HAVE_XML    			               -O2 -c lagesp.F
/tmp/fpp.11586.0.f:
	lagesp:
laggra.F
f77 -D_CS_HAVE_XML    			               -O2 -c laggra.F
/tmp/fpp.11594.0.f:
	laggra:
lagich.F
f77 -D_CS_HAVE_XML    			               -O2 -c lagich.F
/tmp/fpp.11602.0.f:
	lagich:
lagidp.F
f77 -D_CS_HAVE_XML    			               -O2 -c lagidp.F
/tmp/fpp.11610.0.f:
	lagidp:
lagimp.F
f77 -D_CS_HAVE_XML    			               -O2 -c lagimp.F
/tmp/fpp.11618.0.f:
	lagimp:
lagini.F
f77 -D_CS_HAVE_XML    			               -O2 -c lagini.F
/tmp/fpp.11626.0.f:
	lagini:
lagipn.F
f77 -D_CS_HAVE_XML    			               -O2 -c lagipn.F
/tmp/fpp.11634.0.f:
	lagipn:
lagitf.F
f77 -D_CS_HAVE_XML    			               -O2 -c lagitf.F
/tmp/fpp.11642.0.f:
	lagitf:
lagitg.F
f77 -D_CS_HAVE_XML    			               -O2 -c lagitg.F
/tmp/fpp.11650.0.f:
	lagitg:
lagitp.F
f77 -D_CS_HAVE_XML    			               -O2 -c lagitp.F
/tmp/fpp.11658.0.f:
	lagitp:
laglec.F
f77 -D_CS_HAVE_XML    			               -O2 -c laglec.F
/tmp/fpp.11666.0.f:
	laglec:
laglis.F
f77 -D_CS_HAVE_XML    			               -O2 -c laglis.F
/tmp/fpp.11674.0.f:
	laglis:
lagnew.F
f77 -D_CS_HAVE_XML    			               -O2 -c lagnew.F
/tmp/fpp.11682.0.f:
	lagnew:
lagnwc.F
f77 -D_CS_HAVE_XML    			               -O2 -c lagnwc.F
/tmp/fpp.11690.0.f:
	lagnwc:
lagopt.F
f77 -D_CS_HAVE_XML    			               -O2 -c lagopt.F
/tmp/fpp.11698.0.f:
	lagopt:
lagout.F
f77 -D_CS_HAVE_XML    			               -O2 -c lagout.F
/tmp/fpp.11706.0.f:
	lagout:
lagphy.F
f77 -D_CS_HAVE_XML    			               -O2 -c lagphy.F
/tmp/fpp.11714.0.f:
	lagphy:
lagpoi.F
f77 -D_CS_HAVE_XML    			               -O2 -c lagpoi.F
/tmp/fpp.11722.0.f:
	lagpoi:
lagraf.F
f77 -D_CS_HAVE_XML    			               -O2 -c lagraf.F
/tmp/fpp.11730.0.f:
	lagraf:
lagrus.F
f77 -D_CS_HAVE_XML    			               -O2 -c lagrus.F
/tmp/fpp.11738.0.f:
	lagrus:
lagsta.F
f77 -D_CS_HAVE_XML    			               -O2 -c lagsta.F
/tmp/fpp.11746.0.f:
	lagsta:
lagstf.F
f77 -D_CS_HAVE_XML    			               -O2 -c lagstf.F
/tmp/fpp.11754.0.f:
	lagstf:
lagtri.F
f77 -D_CS_HAVE_XML    			               -O2 -c lagtri.F
/tmp/fpp.11762.0.f:
	lagtri:
lagune.F
f77 -D_CS_HAVE_XML    			               -O2 -c lagune.F
/tmp/fpp.11770.0.f:
	lagune:
memla1.F
f77 -D_CS_HAVE_XML    			               -O2 -c memla1.F
/tmp/fpp.11778.0.f:
	memla1:
memla2.F
f77 -D_CS_HAVE_XML    			               -O2 -c memla2.F
/tmp/fpp.11786.0.f:
	memla2:
ouestu.F
f77 -D_CS_HAVE_XML    			               -O2 -c ouestu.F
/tmp/fpp.11794.0.f:
	ouestu:
uslabo.F
f77 -D_CS_HAVE_XML    			               -O2 -c uslabo.F
/tmp/fpp.11802.0.f:
	uslabo:
uslaed.F
f77 -D_CS_HAVE_XML    			               -O2 -c uslaed.F
/tmp/fpp.11810.0.f:
	uslaed:
uslaen.F
f77 -D_CS_HAVE_XML    			               -O2 -c uslaen.F
/tmp/fpp.11818.0.f:
	uslaen:
uslag1.F
f77 -D_CS_HAVE_XML    			               -O2 -c uslag1.F
/tmp/fpp.11826.0.f:
	uslag1:
uslag2.F
f77 -D_CS_HAVE_XML    			               -O2 -c uslag2.F
/tmp/fpp.11834.0.f:
	uslag2:
uslain.F
f77 -D_CS_HAVE_XML    			               -O2 -c uslain.F
/tmp/fpp.11842.0.f:
	uslain:
uslaru.F
f77 -D_CS_HAVE_XML    			               -O2 -c uslaru.F
/tmp/fpp.11850.0.f:
	uslaru:
uslast.F
f77 -D_CS_HAVE_XML    			               -O2 -c uslast.F
/tmp/fpp.11858.0.f:
	uslast:
uslatc.F
f77 -D_CS_HAVE_XML    			               -O2 -c uslatc.F
/tmp/fpp.11867.0.f:
	uslatc:
uslatp.F
f77 -D_CS_HAVE_XML    			               -O2 -c uslatp.F
/tmp/fpp.11875.0.f:
	uslatp:
***  Compilation terminée

***  Création de la librairie
***  Création de la librairie terminée

***  Installation de la librairie
***  Installation de la librairie terminée


   Generation du fichier resume
/home/saturne/Noyau/ncs-1.3.d/build/SunOS/LAGR/.readmeLAGR
   Nettoyage avec MOD=LAGR OPT=
***  "make" dans un répertoire de génération de la librairie
[7m *** Fin de la construction de LAGR
[m[m
[7m
 *** Construction de RAYT sous SunOS
[m[m
   Generation du repertoire RAYT
   Lien sur le Makefile
   Lancement de make avec MOD=RAYT OPT=

***  Compilation/lien Code_Saturne  version 1.3.d
***  Système SunOS

***  "make" dans un répertoire de génération de la librairie
***  Compilation
memra1.F
f77 -D_CS_HAVE_XML    			               -O2 -c memra1.F
/tmp/fpp.12811.0.f:
	memra1:
memra2.F
f77 -D_CS_HAVE_XML    			               -O2 -c memra2.F
/tmp/fpp.12819.0.f:
	memra2:
memra3.F
f77 -D_CS_HAVE_XML    			               -O2 -c memra3.F
/tmp/fpp.12827.0.f:
	memra3:
raybrd.F
f77 -D_CS_HAVE_XML    			               -O2 -c raybrd.F
/tmp/fpp.12835.0.f:
	raybrd:
raycli.F
f77 -D_CS_HAVE_XML    			               -O2 -c raycli.F
/tmp/fpp.12843.0.f:
	raycli:
raydak.F
f77 -D_CS_HAVE_XML    			               -O2 -c raydak.F
/tmp/fpp.12851.0.f:
	raydak:
raydir.F
f77 -D_CS_HAVE_XML    			               -O2 -c raydir.F
/tmp/fpp.12859.0.f:
	raydir:
raydom.F
f77 -D_CS_HAVE_XML    			               -O2 -c raydom.F
/tmp/fpp.12867.0.f:
	raydom:
rayens.F
f77 -D_CS_HAVE_XML    			               -O2 -c rayens.F
/tmp/fpp.12875.0.f:
	rayens:
raylec.F
f77 -D_CS_HAVE_XML    			               -O2 -c raylec.F
/tmp/fpp.12883.0.f:
	raylec:
rayopt.F
f77 -D_CS_HAVE_XML    			               -O2 -c rayopt.F
/tmp/fpp.12891.0.f:
	rayopt:
rayout.F
f77 -D_CS_HAVE_XML    			               -O2 -c rayout.F
/tmp/fpp.12899.0.f:
	rayout:
raypar.F
f77 -D_CS_HAVE_XML    			               -O2 -c raypar.F
/tmp/fpp.12907.0.f:
	raypar:
raypun.F
f77 -D_CS_HAVE_XML    			               -O2 -c raypun.F
/tmp/fpp.12915.0.f:
	raypun:
raysca.F
f77 -D_CS_HAVE_XML    			               -O2 -c raysca.F
/tmp/fpp.12923.0.f:
	raysca:
raysol.F
f77 -D_CS_HAVE_XML    			               -O2 -c raysol.F
/tmp/fpp.12931.0.f:
	raysol:
rmodak.F
f77 -D_CS_HAVE_XML    			               -O2 -c rmodak.F
/tmp/fpp.12940.0.f:
	absorb:
	chebyc:
	asympt:
	tasoot:
	pentag:
	fdleck:
	emigas:
	scrtch:
usray1.F
f77 -D_CS_HAVE_XML    			               -O2 -c usray1.F
/tmp/fpp.12949.0.f:
	usray1:
usray2.F
f77 -D_CS_HAVE_XML    			               -O2 -c usray2.F
/tmp/fpp.12958.0.f:
	usray2:
usray3.F
f77 -D_CS_HAVE_XML    			               -O2 -c usray3.F
/tmp/fpp.12966.0.f:
	usray3:
usray4.F
f77 -D_CS_HAVE_XML    			               -O2 -c usray4.F
/tmp/fpp.12974.0.f:
	usray4:
***  Compilation terminée

***  Création de la librairie
***  Création de la librairie terminée

***  Installation de la librairie
***  Installation de la librairie terminée


   Generation du fichier resume
/home/saturne/Noyau/ncs-1.3.d/build/SunOS/RAYT/.readmeRAYT
   Nettoyage avec MOD=RAYT OPT=
***  "make" dans un répertoire de génération de la librairie
[7m *** Fin de la construction de RAYT
[m[m
[7m
 *** Construction de MATI sous SunOS
[m[m
   Generation du repertoire MATI
   Lien sur le Makefile
   Lancement de make avec MOD=MATI OPT=

***  Compilation/lien Code_Saturne  version 1.3.d
***  Système SunOS

***  "make" dans un répertoire de génération de la librairie
***  Compilation
memmat.F
f77 -D_CS_HAVE_XML    			               -O2 -c memmat.F
/tmp/fpp.13861.0.f:
	memmat:
mtimpi.F
f77 -D_CS_HAVE_XML    			               -O2 -c mtimpi.F
/tmp/fpp.13869.0.f:
	mtimpi:
mtini1.F
f77 -D_CS_HAVE_XML    			               -O2 -c mtini1.F
/tmp/fpp.13877.0.f:
	mtini1:
mtkpdc.F
f77 -D_CS_HAVE_XML    			               -O2 -c mtkpdc.F
/tmp/fpp.13885.0.f:
	mtkpdc:
mtphyv.F
f77 -D_CS_HAVE_XML    			               -O2 -c mtphyv.F
/tmp/fpp.13893.0.f:
	mtphyv:
mtproj.F
f77 -D_CS_HAVE_XML    			               -O2 -c mtproj.F
/tmp/fpp.13901.0.f:
	mtproj:
mttsns.F
f77 -D_CS_HAVE_XML    			               -O2 -c mttsns.F
/tmp/fpp.13909.0.f:
	mttsns:
mttssc.F
f77 -D_CS_HAVE_XML    			               -O2 -c mttssc.F
/tmp/fpp.13918.0.f:
	mttssc:
mttycl.F
f77 -D_CS_HAVE_XML    			               -O2 -c mttycl.F
/tmp/fpp.13926.0.f:
	mttycl:
***  Compilation terminée

***  Création de la librairie
***  Création de la librairie terminée

***  Installation de la librairie
***  Installation de la librairie terminée


   Generation du fichier resume
/home/saturne/Noyau/ncs-1.3.d/build/SunOS/MATI/.readmeMATI
   Nettoyage avec MOD=MATI OPT=
***  "make" dans un répertoire de génération de la librairie
[7m *** Fin de la construction de MATI
[m[m
[7m
 *** Verification des acces
[m[m
chmod: WARNING: can't access bin/compil_stat.exe
[7m *** Fin de la verification des acces
[m[m
[1m    Fin de l'installation des bibliotheques BASE CFBL COGZ CPLV ELEC LAGR RAYT MATI
    Version de Code_Saturne /home/saturne/Noyau/ncs-1.3.d

[m[m
