#!/bin/bash

# Export paths here if necessary or recommended.
export LD_LIBRARY_PATH="/usr/lib/x86_64-linux-gnu/openmpi/lib":$LD_LIBRARY_PATH
# Load environment if this script is run directly.
if test "$CS_ENVIRONMENT_SET" != "true" ; then
  module purge
fi

export LD_LIBRARY_PATH="/home/panos/Development/Code_Saturne_LAGR/../Code_Saturne/Libraries/SCOTCH/lib":$LD_LIBRARY_PATH
export LD_LIBRARY_PATH="/home/panos/Development/Code_Saturne_LAGR/../Code_Saturne/Libraries/PARMETIS/lib":$LD_LIBRARY_PATH
export LD_LIBRARY_PATH="/home/panos/Development/Salome/SALOME-9.4.0/INSTALL/MEDCOUPLING/lib":$LD_LIBRARY_PATH
export LD_LIBRARY_PATH="/home/panos/Development/Code_Saturne_LAGR/../Code_Saturne/Libraries/HDF5/lib":$LD_LIBRARY_PATH
export LD_LIBRARY_PATH="/home/panos/Development/Code_Saturne_LAGR/../Code_Saturne/Libraries/MED/lib":$LD_LIBRARY_PATH
export LD_LIBRARY_PATH="/home/panos/Development/Code_Saturne_LAGR/../Code_Saturne/Libraries/CGNS/lib":$LD_LIBRARY_PATH
export LD_LIBRARY_PATH="/home/panos/Applications/Code_Saturne/code_saturne-lagr/arch/Linux_x86_64/lib":$LD_LIBRARY_PATH

export OMP_NUM_THREADS=8

cd /home/panos/Runs/LAGR/HERCULE/HERCULE-6.0.2-CALC/HERCULE-DIPH-CPL-RijLRR/RESU/20200814-1509_1

# Run solver.
./cs_solver $@
export CS_RET=$?

exit $CS_RET
