command: 
 ./cs_solver

***************************************************************

                                  (R)
                      Code_Saturne

                      Version 6.2-alpha


  Copyright (C) 1998-2020 EDF S.A., France

  revision 145af53c5
  build Fri 14 Aug 2020 15:03:55 CEST
  MPI version 3.1 (Open MPI 4.0.3)


  The Code_Saturne CFD tool  is free software;
  you can redistribute it and/or modify it under the terms
  of the GNU General Public License as published by the
  Free Software Foundation; either version 2 of the License,
  or (at your option) any later version.

  The Code_Saturne CFD tool is distributed in the hope that
  it will be useful, but WITHOUT ANY WARRANTY; without even
  the implied warranty of MERCHANTABILITY or FITNESS FOR A
  PARTICULAR PURPOSE.  See the GNU General Public License
  for more details.

***************************************************************


Local case configuration:

  Date:                Fri 14 Aug 2020 15:09:29 CEST
  System:              Linux 5.4.0-42-generic (Ubuntu 20.04.1 LTS)
  Machine:             Riemann
  Processor:           model name	: Intel(R) Core(TM) i7-7700T CPU @ 2.90GHz
  Memory:              15806 MB
  User:                panos (Panos Asproulis)
  Directory:           /home/panos/Runs/LAGR/HERCULE/HERCULE-6.0.2-CALC/HERCULE-DIPH-CPL-RijLRR/RESU/20200814-1509_1
  OpenMP threads:      8
  Processors/node:     8

  Compilers used for build:
    C compiler:        gcc (Ubuntu 9.3.0-10ubuntu2) 9.3.0
    C++ compiler:      g++ (Ubuntu 9.3.0-10ubuntu2) 9.3.0
    Fortran compiler:  GNU Fortran (Ubuntu 9.3.0-10ubuntu2) 9.3.0

  I/O read method:     standard input and output, serial access
  I/O write method:    standard input and output, serial access

  External libraries for partitioning:
    ParMETIS 4.0.3
    PT-SCOTCH 6.0.6

 Reading metadata from file: "restart/mesh_input.csm"

===============================================================

                   CALCULATION PREPARATION
                   =======================


 ===========================================================




 No error detected during the data verification
                          cs_user_parameters.f90 and others).


 ===========================================================

               CALCULATION PARAMETERS SUMMARY
               ==============================

 -----------------------------------------------------------


 ** DIMENSIONS
    ----------

 --- Physics
       NVAR   =             11 (Nb variables                )
       NSCAL  =              0 (Nb scalars                  )
       NSCAUS =              0 (Nb user scalars             )
       NSCAPP =              0 (Nb specific physics scalars )


 -----------------------------------------------------------


 ** HOMOGENEOUS MIXTURE MODEL VoF           
    ----------------------------------------

       IVOFMT =              0 ( 0  : disabled              )
                               ( > 0: enabled               )


 -----------------------------------------------------------


 ** TIME STEPPING
    -------------

 --- Per-variable properties

------------------------------------
 Variable          ISTAT      CDTVAR
------------------------------------
 Velocity              1  0.1000E+01
 Pressure              0  0.1000E+01
 Rij                   1  0.1000E+01
 epsilon               1  0.1000E+01
----------------------------

       ISTAT  =  0 ou  1       (1 for unsteady              )
       CDTVAR >  0             (time step multiplier        )

 --- Order of base time stepping scheme
       ISCHTP =              1 (1: order 1; 2: order 2      )
                                                             

 -----------------------------------------------------------


 ** STOKES
    ------

  -- Continuous phase:

       ISTMPF =              1 (time scheme for flow
                               (0: explicit (THETFL = 0     )
                               (1: std scheme (Saturne 1.0  )
                               (2: 2nd-order (THETFL = 0.5  )
       THETFL =   -0.99900E+03 (theta for mass flow         )
       THETVI =    0.00000E+00 (theta for total viscosity
                               ((1+theta).new-theta.old
       THETCP =   -0.99900E+03 (specific heat theta-scheme
                               ((1+theta).new-theta.old
       THETSN =    0.00000E+00 (Nav-Stokes S.T. theta scheme)
                               ((1+theta).new-theta.old
       THETST =    0.00000E+00 (Turbulence S.T. theta-scheme)
                               ((1+theta).new-theta.old
       EPSUP  =    0.10000E-04 (Velocity/pressure coupling
                                stop test                   )


 -----------------------------------------------------------


 ** CALCULATION MANAGEMENT
    ----------------------

 --- Restarted calculation
       ISUITE =              1 (1: restarted calculation    )
       ILEAUX =              1 (1: read  restart/auxiliary  )
       IECAUX =              1 (1: write checkpoint/auxiliary)


 --- Calculation time
     The numbering of time steps and the measure of simulated
       physical time are absolute values, and not values
       relative to the current calculation.

       NTPABS =           7000 (Initial time step)
       NTMABS =           8000 (Final time step required)


 -----------------------------------------------------------


 ** INPUT-OUTPUT
    ------------

 --- Restart file
       NTSUIT =              0 (Checkpoint frequency )

 --- Probe history files
       NTHIST =              1 (Output frequency     )
       FRHIST =     -.10000E+01 (Output frequency (s) )
         --           --                --

 --- run_solver.log files
       NTLIST =              1 (Output frequency     )

         --           --                --

 --- Additional post-processing variables (ipstdv)
       ipstfo =              1 (Force exerted by the
                                     fluid on the boundary)
       ipstyp =              1 (y+ at boundary)
       ipsttp =              0 (T+ at boundary)
       ipstft =              1 (Thermal flux   at boundary)
       ipstnu =              0 (Dimensionless thermal
                                          flux at boundary)


 -----------------------------------------------------------


 ** ALE METHOD (MOVING MESH)
    -----------

       IALE   =              0 (1: activated,2: CDO         )
       NALINF =              0 (Fluid initialization
                                                  iterations)
       IFLXMW =              0 (ALE mass flux computation
                                0: thanks to vertices
                                1: thanks to mesh velocity)


 -----------------------------------------------------------


Postprocessing output writers:
------------------------------

  -1: name: results
      directory: postprocessing
      format: EnSight Gold
      options: separate_meshes
      time dependency: fixed mesh
      output: every  1.00000e-01 s and at calculation end

  -3: name: particles
      directory: postprocessing
      format: EnSight Gold
      options: 
      time dependency: transient connectivity
      output: every  1.00000e-01 s and at calculation end

  -4: name: trajectories
      directory: postprocessing
      format: EnSight Gold
      options: 
      time dependency: fixed mesh
      output: at calculation end

  -5: name: 
      directory: monitoring
      format: time_plot
      options: 
      time dependency: fixed mesh
      output: every 1 time steps

  -6: name: 
      directory: profiles
      format: plot
      options: 
      time dependency: fixed mesh
      output: at calculation end

  -7: name: histograms
      directory: histograms
      format: histogram
      options: txt
      time dependency: fixed mesh
      output: at calculation end


 Reading file:        restart/mesh_input.csm
 Finished reading:    restart/mesh_input.csm

 Number of cells:                                      8664

 ----------------------------------------------------------
 Number of cells + halo cells:                         8664


 ----------------------------------------------------------
 Number of interior faces:                             17138

 ----------------------------------------------------------
 Number of boundary faces:                             17594

 ----------------------------------------------------------

 Histogram of the number of interior faces per cell:

    minimum value =                  2
    maximum value =                  4

      1 : [          2 ;          3 [ =          4
      2 : [          3 ;          4 ] =       8660

 ----------------------------------------------------------

 Renumbering mesh:

   renumbering for cells:
     pre-numbering:                       no renumbering
     cells adjacent to ghost cells last:  no
     numbering:                           no renumbering

   renumbering for interior faces:
     cell adjacency pre-ordering:         lowest id first
     faces adjacent to ghost cells last:  no
     numbering:                           multipass

   renumbering for boundary faces:
     numbering:                           no shared cell across threads

   renumbering for vertices:
     numbering:                           no renumbering

 Numbering for cells:

 type: default
  number of halo-adjacent elements:       8664

 Numbering for interior faces:

 type: threads
  number of threads:                         8
  number of exclusive groups:                3
   number of elements in group  0:       15802
   number of elements in group  1:        1207
   number of elements in group  2:         129
  estimated thread imbalance:            0.268

 Numbering for boundary faces:

 type: threads
  number of threads:                         8
  number of exclusive groups:                1
   number of elements in group  0:       17594
  estimated thread imbalance:            0.001

 ----------------------------------------------------------

 Matrix bandwidth for volume mesh :          8651
 Matrix profile/lines for volume mesh :      523

 Mesh coordinates:               minimum    and maximum
                       X :  0.0000000e+00  1.4985724e-01
                       Y : -6.5429071e-03  6.5429071e-03
                       Z :  0.0000000e+00  1.5000000e+00
 Mesh
     Number of cells:          8664
     Number of interior faces: 17138
     Number of boundary faces: 17594
     Number of vertices:       17595

 Groups:
    "Fluid"
       cells:                  8664
    "Injection"
       boundary faces:            5
    "Inlet"
       boundary faces:           38
    "Outlet"
       boundary faces:           76
    "Symmetry-1"
       boundary faces:         8664
    "Symmetry-2"
       boundary faces:         8664
    "Wall-1"
       boundary faces:          114
    "Wall-2"
       boundary faces:           33

 --- Information on the volumes
       Minimum control volume      =  6.1096483e-10
       Maximum control volume      =  8.4199279e-07
       Total volume for the domain =  1.4707530e-03

  Criterion 1: Orthogonality:
    Number of bad cells detected: 0 -->   0 %

  Criterion 2: Offset:
    Number of bad cells detected: 0 -->   0 %

  Criterion 3: Least-Squares Gradient Quality:
    Number of bad cells detected: 0 -->   0 %

  Criterion 4: Cells Volume Ratio:
    Number of bad cells detected: 0 -->   0 %

  Criterion 5: Guilt by Association:
    Number of bad cells detected: 0 -->   0 %

 Computing geometric quantities (0.00668 s)

 --- Information on volume zones
  Volume zone "cells"
    id              = 0
    Number of cells = 8664
    Volume          =  1.4707530e-03
  Center of gravity = ( 9.9909012e-02, -1.0660102e-11,  7.5000000e-01)
    Surface         = -1 (not computed)
  Volume zone "all_cells"
    id              = 1
    Number of cells = 8664
    Volume          =  1.4707530e-03
  Center of gravity = ( 9.9909012e-02, -1.0660102e-11,  7.5000000e-01)
    Surface         = -1 (not computed)

 --- Information on boundary zones
  Boundary zone "boundary_faces"
    id              = 0
    Number of faces = 17594
    Surface         =  4.7158974e-01
  Center of gravity = ( 7.8151190e-02, -3.1797219e-11,  7.5000000e-01)
    Perimeter       = -1 (not computed)
  Boundary zone "BC_1"
    id              = 1
    Number of faces = 5
    Surface         =  4.3577860e-06
  Center of gravity = ( 6.6603211e-03, -4.6566127e-12,  0.0000000e+00)
    Perimeter       = -1 (not computed)
  Boundary zone "BC_2"
    id              = 2
    Number of faces = 38
    Surface         =  7.3537651e-04
  Center of gravity = ( 1.1655563e-01, -6.0895333e-11,  0.0000000e+00)
    Perimeter       = -1 (not computed)
  Boundary zone "BC_3"
    id              = 3
    Number of faces = 76
    Surface         =  9.8050201e-04
  Center of gravity = ( 9.9904826e-02, -5.1643221e-11,  1.5000000e+00)
    Perimeter       = -1 (not computed)
  Boundary zone "BC_4"
    id              = 4
    Number of faces = 8664
    Surface         =  2.2500001e-01
  Center of gravity = ( 7.4928619e-02,  3.2714536e-03,  7.5000000e-01)
    Perimeter       = -1 (not computed)
  Boundary zone "BC_5"
    id              = 5
    Number of faces = 8664
    Surface         =  2.2500001e-01
  Center of gravity = ( 7.4928619e-02, -3.2714537e-03,  7.5000000e-01)
    Perimeter       = -1 (not computed)
  Boundary zone "BC_6"
    id              = 6
    Number of faces = 114
    Surface         =  1.9628721e-02
  Center of gravity = ( 1.4985724e-01,  6.7426144e-21,  7.5000000e-01)
    Perimeter       = -1 (not computed)
  Boundary zone "BC_7"
    id              = 7
    Number of faces = 33
    Surface         =  2.4076772e-04
  Center of gravity = ( 5.0735980e-02, -2.4234944e-11,  0.0000000e+00)
    Perimeter       = -1 (not computed)

 Probe set: "probes":
   maximum distance between cell centers and requested coordinates: 8.946e-05
                                                             
       ALMAX  =    0.11372E+00 (Characteristic length       )
       ALMAX is the cubic root of the domain volume.

       ALMAX is the length used to initialize the turbulence.
 ------------------------------------------------------------- 


 ----------------------------------------------------------- 

   ** READING MAIN AND AUXILIARY RESTART FILES
      ----------------------------------------


      READING THE MAIN RESTART FILE

 Start reading
 Reading dimensions complete
  Reading the previous time step number (restarting computation)  NTPABS =         7000
  Reading the previous time step number (restarting computation)  TTPABS =   0.7000E+01
 Reading options complete
  Read variables from restart: restart/main.csc
 Reading complete

         READING THE AUXILIARY RESTART FILE             

 Start reading                                          
   Finished reading options                             
  restart/auxiliary.csc: section "ref_presstot01" not present.
@                                                            
@@@@@@@@@@@@@@@@@@@@@@@@@@@@@@@@@@@@@@@@@@@@@@@@@@@@@@@@@@@@@
@                                                            
@ @@ WARNING: WHEN READING THE AUXILIARY RESTART FILE        
@    =======                                                 
@      Lecture des proprietes physiques                      
@                                                            
@    It was not possible to read some values from the        
@      auxiliary restart file.                               
@    They will be initialized by the default values.         
@                                                            
@     This situation can occur when the restart file         
@      originates from a run realised with different         
@      options or when the file is damaged.                  
@                                                            
@    The run will continue...                                
@                                                            
@@@@@@@@@@@@@@@@@@@@@@@@@@@@@@@@@@@@@@@@@@@@@@@@@@@@@@@@@@@@@
@                                                            

   Fin de la lecture des proprietes physiques           
   Fin de la lecture du pas de temps                    
   Fin de la lecture des flux de masse                  
   Fin de la lecture des conditions aux limites         
 End reading                                            

 ----------------------------------------------------------- 


 ** VARIABLES INITIALIZATION
    ------------------------
                                                             
 -----------------------------------------
 Property           Min. value  Max. value
 -----------------------------------------
  density           0.1179E+01  0.1179E+01
  molecular_viscos  0.1833E-04  0.1833E-04
  turbulent_viscos  0.6654E-25  0.3814E-02
 -----------------------------------------



   ** INFORMATION ON BOUNDARY FACES TYPE
      ----------------------------------

-------------------------------------------------------------------------
Boundary type          Code    Nb faces
-------------------------------------------------------------------------
Inlet                     2          43
Smooth wall               5         147
Rough wall                6           0
Symmetry                  4       17328
Free outlet               3          76
Free inlet               14           0
Convective inlet         16           0
Free surface             15           0
Undefined                 1           0
-------------------------------------------------------------------------


  ** Clippings for computed fields
     -----------------------------

   field       initial min     initial max  clips to min  clips to max
-  -------  --------------  --------------  ------------  ------------
a  Rij    
a  Rij[XX]
a  Rij[YY]
a  Rij[ZZ]
a  Rij[XY]
a  Rij[YZ]
a  Rij[XZ]
a  epsilon


  ** Field values on cells
     ---------------------

   field                                    minimum         maximum        set mean    spatial mean
-  --------------------------------  --------------  --------------  --------------  --------------
v  Velocity[X]                             -0.76853         0.58777       -0.069236       -0.048756
v  Velocity[Y]                           -0.0058046       0.0076615     -2.9035e-06      3.9765e-06
v  Velocity[Z]                              -1.7813          6.0902            3.64          4.2801
v  ǁVelocityǁ                              0.018876          6.0903          3.7897          4.3103
v  Pressure                                 -8.3922         0.90643         -2.0092        -0.78505
v  Rij[XX]                                7.683e-13         0.74504         0.10568        0.067426
v  Rij[YY]                                7.683e-13         0.61524         0.10625        0.069907
v  Rij[ZZ]                                7.683e-13         0.94461         0.14944         0.10565
v  Rij[XY]                              -0.00076404      0.00073041      3.1194e-07      2.8792e-07
v  Rij[YZ]                               -0.0026389       0.0017428     -9.7278e-07      3.3074e-07
v  Rij[XZ]                                 -0.45564         0.15474        -0.02985      -0.0072006
v  epsilon                                  0.12705          625.45          6.0781          3.4835
v  TurbVisc                              6.6537e-26        0.003814       0.0014172       0.0012744
v  CourantNb                                      0               0               0               0
v  FourierNb                                      0               0               0               0
v  total_pressure                        1.0132e+05      1.0134e+05      1.0133e+05      1.0133e+05
m  Part_statis_weight                             0               0               0
m  Part_vol_frac                                  0               0               0
m  Part_resid_time                                0               0               0
m  var_particle_residence_time                    0               0               0
m  mean_particle_mass                             0               0               0
m  var_particle_mass                              0               0               0
m  mean_particle_diameter                         0               0               0
m  var_particle_diameter                          0               0               0
m  Part_velocity[X]                               0               0               0
m  Part_velocity[Y]                               0               0               0
m  Part_velocity[Z]                               0               0               0
m  ǁPart_velocityǁ                                0               0               0
m  var_particle_velocity[XX]                      0               0               0
m  var_particle_velocity[YY]                      0               0               0
m  var_particle_velocity[ZZ]                      0               0               0
m  var_particle_velocity[XY]                      0               0               0
m  var_particle_velocity[YZ]                      0               0               0
m  var_particle_velocity[XZ]                      0               0               0
m  particle_cumulative_weight_c1                  0               0               0
m  mean_particle_volume_fraction_c1               0               0               0
m  mean_particle_residence_time_c1                0               0               0
m  var_particle_residence_time_c1                 0               0               0
m  mean_particle_mass_c1                          0               0               0
m  var_particle_mass_c1                           0               0               0
m  mean_particle_diameter_c1                      0               0               0
m  var_particle_diameter_c1                       0               0               0
m  mean_particle_velocity_c1[X]                   0               0               0
m  mean_particle_velocity_c1[Y]                   0               0               0
m  mean_particle_velocity_c1[Z]                   0               0               0
m  ǁmean_particle_velocity_c1ǁ                    0               0               0
m  var_particle_velocity_c1[XX]                   0               0               0
m  var_particle_velocity_c1[YY]                   0               0               0
m  var_particle_velocity_c1[ZZ]                   0               0               0
m  var_particle_velocity_c1[XY]                   0               0               0
m  var_particle_velocity_c1[YZ]                   0               0               0
m  var_particle_velocity_c1[XZ]                   0               0               0
m  TimeAverage_vx                       -0.00071637       0.0067795      1.6075e-06
m  TimeAverage_vz                           -1.9149          6.1083          3.6076

  ** Field values on boundary_faces
     ------------------------------

   field                                    minimum         maximum        set mean    spatial mean
-  --------------------------------  --------------  --------------  --------------  --------------
m  Part_impact_number                             0               0               0
m  Part_bndy_mass_flux                            0               0               0
m  particle_events_weight_c1                      0               0               0
m  particle_mass_flux_density_c1                  0               0               0
m  Part_impact_angle                              0               0               0
m  var_particle_impact_angle                      0               0               0
m  mean_particle_impact_angle_c1                  0               0               0
m  var_particle_impact_angle_c1                   0               0               0
m  Part_impact_velocity                           0               0               0
m  var_particle_impact_velocity                   0               0               0
m  mean_particle_impact_velocity_c1               0               0               0
m  var_particle_impact_velocity_c1                0               0               0
v  Yplus                                          0               0               0               0


  ** Temporal moment accumulated weights
     -----------------------------------

   id   n it.             value
   ---- -------- --------------
   0    3501              3.501
   ** INFORMATION ON THE LAGRANGIAN CALCULATION
--------------------------------------------------------------------------------

   Current number of particles (with and without statistical weight) :

ln  newly injected                                  0      0.00000E+00
ln  out, or deposited and eliminated                0      0.00000E+00
ln  deposited                                       0      0.00000E+00
ln  lost in the location stage                      0
ln  total number at the end of the time step        0      0.00000E+00
--------------------------------------------------------------------------------
   Zone  Class  Mass flow rate(kg/s)      Name (type)
--------------------------------------------------------------------------------
   Unsteady two-way coupling source terms:
--------------------------------------------------------------------------------
Maximum particle volume fraction:    0.00000e+00
Maximum particle mass fraction:      0.00000e+00
Number of cells with a particle volume fraction greater than 0.8:          0
--------------------------------------------------------------------------------


===============================================================



                       MAIN CALCULATION                      
                       ================                      


===============================================================




===============================================================


 INSTANT    0.700100000E+01   TIME STEP NUMBER            7001
 ============================================================= 




   ** BOUNDARY MASS FLOW INFORMATION
      ------------------------------

---------------------------------------------------------------
Boundary type          Code    Nb faces           Mass flow
---------------------------------------------------------------
Inlet                     2          43        -0.494628865E-02
Smooth wall               5         147         0.000000000E+00
Rough wall                6           0         0.000000000E+00
Symmetry                  4       17328         0.000000000E+00
Free outlet               3          76         0.494628865E-02
Free inlet               14           0         0.000000000E+00
Convective inlet         16           0         0.000000000E+00
Free surface             15           0         0.000000000E+00
Undefined                 1           0         0.000000000E+00
---------------------------------------------------------------


   ** BOUNDARY CONDITIONS FOR SMOOTH WALLS
   ---------------------------------------
------------------------------------------------------------
                                         Minimum     Maximum
------------------------------------------------------------
   Rel velocity at the wall uiptn :  0.69593E-02 0.38736E+01
   Friction velocity        uet   :  0.80634E-03 0.47753E+00
   Friction velocity        uk    :  0.10590E+00 0.30005E+00
   Dimensionless distance   yplus :  0.11931E+02 0.33003E+02
   ------------------------------------------------------
   Nb of reversal of the velocity at the wall   :          0
   Nb of faces within the viscous sub-layer     :          0
   Total number of wall faces                   :        147
------------------------------------------------------------



   ** INFORMATION ON CONVERGENCE
      --------------------------
----------------------------------------------------------------------------
   Variable     Rhs norm      N_iter  Norm. residual   Drift   Time residual
----------------------------------------------------------------------------
c  Velocity     0.11060E+00       7   0.47189E-03   0.14160E+00 0.26992E+01 
c  Velocity[X]                                      0.60994E-01 
c  Velocity[Y]                                      0.62624E-06 
c  Velocity[Z]                                      0.80605E-01 
c  Pressure     0.70301E-05      10   0.13239E-07   0.86051E-02 0.13738E+02 
c  Rij          0.39259E-02      13   0.13381E-03   0.91235E-02 0.14417E+02 
c  Rij[XX]                                          0.20059E-02 
c  Rij[YY]                                          0.14525E-02 
c  Rij[ZZ]                                          0.47681E-02 
c  Rij[XY]                                          0.94793E-07 
c  Rij[YZ]                                          0.25924E-06 
c  Rij[XZ]                                          0.89660E-03 
c  epsilon      0.30564E+00      11   0.37097E-03   0.13052E+04 0.11602E+03 
----------------------------------------------------------------------------
  
  

  ** Clippings for computed fields
     -----------------------------

   field       initial min     initial max  clips to min  clips to max
-  -------  --------------  --------------  ------------  ------------
a  Rij    
a  Rij[XX]
a  Rij[YY]
a  Rij[ZZ]
a  Rij[XY]
a  Rij[YZ]
a  Rij[XZ]
a  epsilon


  ** Field values on cells
     ---------------------

   field                                    minimum         maximum        set mean    spatial mean
-  --------------------------------  --------------  --------------  --------------  --------------
v  Velocity[X]                             -0.77467         0.58593       -0.069091       -0.048645
v  Velocity[Y]                           -0.0055152       0.0072306     -2.1239e-06      3.9968e-06
v  Velocity[Z]                              -1.7778          6.0931          3.6392          4.2801
v  ǁVelocityǁ                              0.015589          6.0932          3.7891          4.3103
v  Pressure                                  -8.295         0.90588         -1.9874        -0.76648
v  Rij[XX]                               1.1943e-12         0.73936         0.10547        0.067334
v  Rij[YY]                               1.1614e-12         0.60997         0.10606        0.069827
v  Rij[ZZ]                                4.968e-12         0.93238         0.14914         0.10552
v  Rij[XY]                              -0.00039797      0.00040817      5.3383e-07      2.7126e-07
v  Rij[YZ]                               -0.0012016      0.00068351     -1.7774e-07      3.2301e-07
v  Rij[XZ]                                 -0.45106         0.15482       -0.029787      -0.0071516
v  epsilon                               6.7312e-10          113.67           5.845          3.4511
v  TurbVisc                              6.6537e-26        0.003814       0.0014172       0.0012744
v  CourantNb                               0.001426          1.7514         0.47125          0.3722
v  FourierNb                              0.0089548          1.7796          0.6666         0.58466
v  total_pressure                        1.0132e+05      1.0134e+05      1.0133e+05      1.0133e+05
m  Part_statis_weight                             0       0.0035759      1.3758e-06
m  Part_vol_frac                                  0      0.00016315      5.3809e-08
m  Part_resid_time                                0      0.00056795      2.0363e-07
m  var_particle_residence_time                    0      1.3507e-07       4.295e-11
m  mean_particle_mass                             0       1.313e-09       2.253e-13
m  var_particle_mass                              0      1.4056e-20      4.0812e-24
m  mean_particle_diameter                         0       0.0001005      2.9795e-08
m  var_particle_diameter                          0      1.9656e-10      4.3856e-14
m  Part_velocity[X]                               0          0.1495      4.8062e-05
m  Part_velocity[Y]                       -0.031525        0.088403      1.1302e-05
m  Part_velocity[Z]                               0          4.0617       0.0016087
m  ǁPart_velocityǁ                                0          4.0641       0.0016099
m  var_particle_velocity[XX]                      0        0.031429      7.3684e-06
m  var_particle_velocity[YY]                      0        0.034882      6.4143e-06
m  var_particle_velocity[ZZ]                      0         0.34436      5.7731e-05
m  var_particle_velocity[XY]            -0.00030919         0.03258      4.5356e-06
m  var_particle_velocity[YZ]              -0.064123        0.029909      -7.169e-06
m  var_particle_velocity[XZ]              -0.044832        0.032686     -1.1692e-06
m  particle_cumulative_weight_c1                  0               0               0
m  mean_particle_volume_fraction_c1               0               0               0
m  mean_particle_residence_time_c1                0               0               0
m  var_particle_residence_time_c1                 0               0               0
m  mean_particle_mass_c1                          0               0               0
m  var_particle_mass_c1                           0               0               0
m  mean_particle_diameter_c1                      0               0               0
m  var_particle_diameter_c1                       0               0               0
m  mean_particle_velocity_c1[X]                   0               0               0
m  mean_particle_velocity_c1[Y]                   0               0               0
m  mean_particle_velocity_c1[Z]                   0               0               0
m  ǁmean_particle_velocity_c1ǁ                    0               0               0
m  var_particle_velocity_c1[XX]                   0               0               0
m  var_particle_velocity_c1[YY]                   0               0               0
m  var_particle_velocity_c1[ZZ]                   0               0               0
m  var_particle_velocity_c1[XY]                   0               0               0
m  var_particle_velocity_c1[YZ]                   0               0               0
m  var_particle_velocity_c1[XZ]                   0               0               0
m  TimeAverage_vx                       -0.00071618       0.0067795      1.6065e-06
m  TimeAverage_vz                           -1.9148          6.1083          3.6076

  ** Field values on boundary_faces
     ------------------------------

   field                                    minimum         maximum        set mean    spatial mean
-  --------------------------------  --------------  --------------  --------------  --------------
m  Part_impact_number                             0       0.0035759      6.7749e-07
m  Part_bndy_mass_flux                      -1.4124               0      -0.0002294
m  particle_events_weight_c1                      0               0               0
m  particle_mass_flux_density_c1                  0               0               0
m  Part_impact_angle                              0               0               0
m  var_particle_impact_angle                      0               0               0
m  mean_particle_impact_angle_c1                  0               0               0
m  var_particle_impact_angle_c1                   0               0               0
m  Part_impact_velocity                           0               0               0
m  var_particle_impact_velocity                   0               0               0
m  mean_particle_impact_velocity_c1               0               0               0
m  var_particle_impact_velocity_c1                0               0               0
v  Yplus                                          0          33.003         0.12991         0.58541


  ** Computed values on cells
     ------------------------

   criterion               minimum         maximum        set mean    spatial mean
   ---------------  --------------  --------------  --------------  --------------
   Courant/Fourier        0.031296          3.1989          1.1379         0.95686


  ** Temporal moment accumulated weights
     -----------------------------------

   id   n it.             value
   ---- -------- --------------
   0    3502              3.502

  ** Particle moment accumulated weights
     -----------------------------------

   id   n it.           minimum        maximum       set mean
   ---- -------- -------------- -------------- --------------
   0    1                     0      0.0035759     1.3758e-06
   1    1                 0.001          0.001
   2    1                     0              0              0
   3    1                 0.001          0.001
   4    1                     0      0.0035759     6.7749e-07
   5    1                     0              0              0

   ** INFORMATION ON THE LAGRANGIAN CALCULATION
--------------------------------------------------------------------------------

  Lagrangian particle injection
  -----------------------------

  zone: 1 (BC_1), set:  0
    n particles to inject: 10
    velocity: [0, 0, 0]    diameter: 6e-05; (variance: 1.455e-05)
    density: 2470
    flow rate: 3.85e-06
    statistical cluster id: 0
    statistical weight: 0


   Current number of particles (with and without statistical weight) :

ln  newly injected                                 10      1.19197E+01
ln  out, or deposited and eliminated                0      0.00000E+00
ln  deposited                                       0      0.00000E+00
ln  lost in the location stage                      0
ln  total number at the end of the time step       10      1.19197E+01
% of lost particles (restart(s) included):    0.0000E+00
--------------------------------------------------------------------------------
   Zone  Class  Mass flow rate(kg/s)      Name (type)
     1          3.85000e-06               BC_1 (inlet)
--------------------------------------------------------------------------------
   Unsteady two-way coupling source terms:
--------------------------------------------------------------------------------
Maximum particle volume fraction:    1.63149e-04
Maximum particle mass fraction:      3.41909e-01
Number of cells with a particle volume fraction greater than 0.8:          0
--------------------------------------------------------------------------------

 INSTANT    0.700200000E+01   TIME STEP NUMBER            7002
 ============================================================= 




   ** BOUNDARY MASS FLOW INFORMATION
      ------------------------------

---------------------------------------------------------------
Boundary type          Code    Nb faces           Mass flow
---------------------------------------------------------------
Inlet                     2          43        -0.494628865E-02
Smooth wall               5         147         0.000000000E+00
Rough wall                6           0         0.000000000E+00
Symmetry                  4       17328         0.000000000E+00
Free outlet               3          76         0.494628866E-02
Free inlet               14           0         0.000000000E+00
Convective inlet         16           0         0.000000000E+00
Free surface             15           0         0.000000000E+00
Undefined                 1           0         0.000000000E+00
---------------------------------------------------------------


   ** BOUNDARY CONDITIONS FOR SMOOTH WALLS
   ---------------------------------------
------------------------------------------------------------
                                         Minimum     Maximum
------------------------------------------------------------
   Rel velocity at the wall uiptn :  0.94069E-02 0.38743E+01
   Friction velocity        uet   :  0.10919E-02 0.47761E+00
   Friction velocity        uk    :  0.10577E+00 0.30005E+00
   Dimensionless distance   yplus :  0.11917E+02 0.32881E+02
   ------------------------------------------------------
   Nb of reversal of the velocity at the wall   :          0
   Nb of faces within the viscous sub-layer     :          0
   Total number of wall faces                   :        147
------------------------------------------------------------



   ** INFORMATION ON CONVERGENCE
      --------------------------
----------------------------------------------------------------------------
   Variable     Rhs norm      N_iter  Norm. residual   Drift   Time residual
----------------------------------------------------------------------------
c  Velocity     0.11060E+00       6   0.50394E-03   0.14091E+00 0.26925E+01 
c  Velocity[X]                                      0.60086E-01 
c  Velocity[Y]                                      0.50204E-06 
c  Velocity[Z]                                      0.80828E-01 
c  Pressure     0.71626E-05      10   0.13769E-07   0.87665E-02 0.12424E+02 
c  Rij          0.39192E-02      13   0.13793E-03   0.84457E-02 0.13908E+02 
c  Rij[XX]                                          0.18572E-02 
c  Rij[YY]                                          0.13479E-02 
c  Rij[ZZ]                                          0.44219E-02 
c  Rij[XY]                                          0.21211E-07 
c  Rij[YZ]                                          0.54098E-07 
c  Rij[XZ]                                          0.81871E-03 
c  epsilon      0.30490E+00      11   0.26169E-03   0.93997E+02 0.31477E+02 
----------------------------------------------------------------------------
  
  

  ** Clippings for computed fields
     -----------------------------

   field       initial min     initial max  clips to min  clips to max
-  -------  --------------  --------------  ------------  ------------
a  Rij    
a  Rij[XX]
a  Rij[YY]
a  Rij[ZZ]
a  Rij[XY]
a  Rij[YZ]
a  Rij[XZ]
a  epsilon


  ** Field values on cells
     ---------------------

   field                                    minimum         maximum        set mean    spatial mean
-  --------------------------------  --------------  --------------  --------------  --------------
v  Velocity[X]                             -0.77905          0.5853       -0.068952       -0.048539
v  Velocity[Y]                           -0.0052629       0.0067981     -1.7814e-06      4.0122e-06
v  Velocity[Z]                              -1.7739          6.0962          3.6383          4.2801
v  ǁVelocityǁ                              0.012692          6.0964          3.7885          4.3104
v  Pressure                                 -8.1927         0.90598         -1.9727        -0.75037
v  Rij[XX]                               0.00011483         0.73338         0.10532        0.067253
v  Rij[YY]                               0.00011284         0.60455         0.10591        0.069756
v  Rij[ZZ]                               0.00029856         0.92148         0.14894         0.10541
v  Rij[XY]                              -0.00023613      0.00023578      5.6262e-07      2.3755e-07
v  Rij[YZ]                              -0.00062131      0.00054453      4.7077e-08      2.9531e-07
v  Rij[XZ]                                 -0.44633         0.15464       -0.029737      -0.0071118
v  epsilon                                0.0096736          112.47          5.7251          3.4255
v  TurbVisc                              2.1131e-15       0.0038177       0.0014197       0.0012748
v  CourantNb                              0.0092788          1.7515         0.47091         0.37207
v  FourierNb                              0.0095044          1.7786         0.66776         0.58486
v  total_pressure                        1.0132e+05      1.0134e+05      1.0133e+05      1.0133e+05
m  Part_statis_weight                             0       0.0075099      2.4421e-06
m  Part_vol_frac                                  0       0.0008702      2.0373e-07
m  Part_resid_time                                0       0.0012084      4.9227e-07
m  var_particle_residence_time                    0      5.0358e-07      1.3181e-10
m  mean_particle_mass                             0      8.5037e-10      2.1029e-13
m  var_particle_mass                              0      1.9905e-19      2.8387e-23
m  mean_particle_diameter                         0      8.4048e-05      3.5044e-08
m  var_particle_diameter                          0      2.5191e-10       7.905e-14
m  Part_velocity[X]                         -1.9124         0.22783     -0.00051151
m  Part_velocity[Y]                        -0.43309         0.18029     -3.0482e-05
m  Part_velocity[Z]                               0          2.7973        0.001203
m  ǁPart_velocityǁ                                0           2.905       0.0013746
m  var_particle_velocity[XX]                      0          8.9732       0.0018413
m  var_particle_velocity[YY]                      0         0.29848      4.3498e-05
m  var_particle_velocity[ZZ]                      0          3.9102       0.0013807
m  var_particle_velocity[XY]               -0.41155         0.79029      5.6501e-05
m  var_particle_velocity[YZ]                -0.3964         0.53949      3.6579e-05
m  var_particle_velocity[XZ]              -0.042313          4.0596      0.00098036
m  particle_cumulative_weight_c1                  0               0               0
m  mean_particle_volume_fraction_c1               0               0               0
m  mean_particle_residence_time_c1                0               0               0
m  var_particle_residence_time_c1                 0               0               0
m  mean_particle_mass_c1                          0               0               0
m  var_particle_mass_c1                           0               0               0
m  mean_particle_diameter_c1                      0               0               0
m  var_particle_diameter_c1                       0               0               0
m  mean_particle_velocity_c1[X]                   0               0               0
m  mean_particle_velocity_c1[Y]                   0               0               0
m  mean_particle_velocity_c1[Z]                   0               0               0
m  ǁmean_particle_velocity_c1ǁ                    0               0               0
m  var_particle_velocity_c1[XX]                   0               0               0
m  var_particle_velocity_c1[YY]                   0               0               0
m  var_particle_velocity_c1[ZZ]                   0               0               0
m  var_particle_velocity_c1[XY]                   0               0               0
m  var_particle_velocity_c1[YZ]                   0               0               0
m  var_particle_velocity_c1[XZ]                   0               0               0
m  TimeAverage_vx                       -0.00071595       0.0067795      1.6055e-06
m  TimeAverage_vz                           -1.9148          6.1083          3.6076

  ** Field values on boundary_faces
     ------------------------------

   field                                    minimum         maximum        set mean    spatial mean
-  --------------------------------  --------------  --------------  --------------  --------------
m  Part_impact_number                             0        0.023839      3.7093e-06
m  Part_bndy_mass_flux                      -2.9607               0     -0.00033145
m  particle_events_weight_c1                      0               0               0
m  particle_mass_flux_density_c1                  0               0               0
m  Part_impact_angle                              0          1.5228      0.00042279
m  var_particle_impact_angle                      0         0.21634      2.2507e-05
m  mean_particle_impact_angle_c1                  0               0               0
m  var_particle_impact_angle_c1                   0               0               0
m  Part_impact_velocity                           0          4.0617       0.0012659
m  var_particle_impact_velocity                   0       0.0092143      5.2372e-07
m  mean_particle_impact_velocity_c1               0               0               0
m  var_particle_impact_velocity_c1                0               0               0
v  Yplus                                          0          32.881         0.12976         0.58537


  ** Computed values on cells
     ------------------------

   criterion               minimum         maximum        set mean    spatial mean
   ---------------  --------------  --------------  --------------  --------------
   Courant/Fourier        0.032161           3.199          1.1387         0.95693


  ** Temporal moment accumulated weights
     -----------------------------------

   id   n it.             value
   ---- -------- --------------
   0    3503              3.503

  ** Particle moment accumulated weights
     -----------------------------------

   id   n it.           minimum        maximum       set mean
   ---- -------- -------------- -------------- --------------
   0    1                     0      0.0075099     2.4421e-06
   1    1                 0.002          0.002
   2    1                     0              0              0
   3    1                 0.002          0.002
   4    1                     0       0.023839     3.7093e-06
   5    1                     0              0              0

   ** INFORMATION ON THE LAGRANGIAN CALCULATION
--------------------------------------------------------------------------------

   Current number of particles (with and without statistical weight) :

ln  newly injected                                 10      1.28150E+01
ln  out, or deposited and eliminated                3      3.57591E+00
ln  deposited                                       0      0.00000E+00
ln  lost in the location stage                      0
ln  total number at the end of the time step       17      2.11588E+01
% of lost particles (restart(s) included):    0.0000E+00
--------------------------------------------------------------------------------
   Zone  Class  Mass flow rate(kg/s)      Name (type)
     1          3.21163e-06               BC_1 (inlet)
--------------------------------------------------------------------------------
   Unsteady two-way coupling source terms:
--------------------------------------------------------------------------------
Maximum particle volume fraction:    3.60409e-04
Maximum particle mass fraction:      7.55305e-01
Number of cells with a particle volume fraction greater than 0.8:          0
--------------------------------------------------------------------------------

 INSTANT    0.700300000E+01   TIME STEP NUMBER            7003
 ============================================================= 




   ** BOUNDARY MASS FLOW INFORMATION
      ------------------------------

---------------------------------------------------------------
Boundary type          Code    Nb faces           Mass flow
---------------------------------------------------------------
Inlet                     2          43        -0.494628865E-02
Smooth wall               5         147         0.000000000E+00
Rough wall                6           0         0.000000000E+00
Symmetry                  4       17328         0.000000000E+00
Free outlet               3          76         0.494628865E-02
Free inlet               14           0         0.000000000E+00
Convective inlet         16           0         0.000000000E+00
Free surface             15           0         0.000000000E+00
Undefined                 1           0         0.000000000E+00
---------------------------------------------------------------


   ** BOUNDARY CONDITIONS FOR SMOOTH WALLS
   ---------------------------------------
------------------------------------------------------------
                                         Minimum     Maximum
------------------------------------------------------------
   Rel velocity at the wall uiptn :  0.11770E-01 0.38749E+01
   Friction velocity        uet   :  0.13686E-02 0.47766E+00
   Friction velocity        uk    :  0.10559E+00 0.30006E+00
   Dimensionless distance   yplus :  0.11896E+02 0.32882E+02
   ------------------------------------------------------
   Nb of reversal of the velocity at the wall   :          0
   Nb of faces within the viscous sub-layer     :          0
   Total number of wall faces                   :        147
------------------------------------------------------------



   ** INFORMATION ON CONVERGENCE
      --------------------------
----------------------------------------------------------------------------
   Variable     Rhs norm      N_iter  Norm. residual   Drift   Time residual
----------------------------------------------------------------------------
c  Velocity     0.11060E+00       5   0.54795E-03   0.13950E+00 0.26788E+01 
c  Velocity[X]                                      0.59422E-01 
c  Velocity[Y]                                      0.42709E-06 
c  Velocity[Z]                                      0.80074E-01 
c  Pressure     0.73420E-05      10   0.18684E-07   0.89864E-02 0.14541E+02 
c  Rij          0.39134E-02      13   0.14565E-03   0.87008E-02 0.14148E+02 
c  Rij[XX]                                          0.19463E-02 
c  Rij[YY]                                          0.14426E-02 
c  Rij[ZZ]                                          0.44972E-02 
c  Rij[XY]                                          0.70568E-08 
c  Rij[YZ]                                          0.16717E-07 
c  Rij[XZ]                                          0.81480E-03 
c  epsilon      0.30525E+00      11   0.32798E-03   0.14022E+05 0.36091E+03 
----------------------------------------------------------------------------
  
  

  ** Clippings for computed fields
     -----------------------------

   field       initial min     initial max  clips to min  clips to max
-  -------  --------------  --------------  ------------  ------------
a  Rij              3.2871                            25
a  Rij[XX]         -1.8991                            25
a  Rij[YY]       -0.020007                            25
a  Rij[ZZ]          -1.895                            25
a  Rij[XY]       -0.014987                            25
a  Rij[YZ]       -0.014008                            25
a  Rij[XZ]         -1.9293                            25
a  epsilon


  ** Field values on cells
     ---------------------

   field                                    minimum         maximum        set mean    spatial mean
-  --------------------------------  --------------  --------------  --------------  --------------
v  Velocity[X]                             -0.78264         0.57509       -0.068851        -0.04844
v  Velocity[Y]                           -0.0050201        0.006738     -1.4369e-06      4.0255e-06
v  Velocity[Z]                              -1.7685          6.0991          3.6376          4.2801
v  ǁVelocityǁ                             0.0060718          6.0992          3.7879          4.3104
v  Pressure                                 -10.086         0.90825         -1.9566        -0.72999
v  Rij[XX]                               7.4574e-13         0.72704         0.10504        0.067178
v  Rij[YY]                               7.4574e-13         0.59928         0.10567        0.069692
v  Rij[ZZ]                               7.4574e-13          0.9109         0.14864         0.10531
v  Rij[XY]                              -0.00017224      0.00023215      5.6298e-07      2.0263e-07
v  Rij[YZ]                              -0.00035217      0.00045369      2.1212e-07       2.702e-07
v  Rij[XZ]                                 -0.44151          0.1542       -0.029766      -0.0070815
v  epsilon                                 0.056643          1554.1          6.2061          3.4194
v  TurbVisc                              4.3928e-07       0.0038205       0.0014224       0.0012753
v  CourantNb                               0.014199          1.7515         0.47057         0.37192
v  FourierNb                               0.010474          1.7799         0.66902         0.58508
v  total_pressure                        1.0131e+05      1.0134e+05      1.0133e+05      1.0133e+05
m  Part_statis_weight                             0       0.0063602      2.5645e-06
m  Part_vol_frac                                  0      0.00099669      1.8395e-07
m  Part_resid_time                                0         0.00249      5.9954e-07
m  var_particle_residence_time                    0      3.6874e-07      9.5231e-11
m  mean_particle_mass                             0      3.6216e-10      1.5359e-13
m  var_particle_mass                              0      3.1192e-20      7.9415e-24
m  mean_particle_diameter                         0      6.4485e-05      3.2862e-08
m  var_particle_diameter                          0      1.8249e-10      4.5246e-14
m  Part_velocity[X]                         -1.2945         0.16331     -0.00013461
m  Part_velocity[Y]                        -0.14234         0.39125      5.4442e-05
m  Part_velocity[Z]                               0           3.747       0.0015595
m  ǁPart_velocityǁ                                0          3.7682       0.0016104
m  var_particle_velocity[XX]                      0          8.9563        0.001217
m  var_particle_velocity[YY]                      0        0.064921      1.3269e-05
m  var_particle_velocity[ZZ]                      0          3.6404      0.00071549
m  var_particle_velocity[XY]              -0.069171        0.035113     -5.7692e-07
m  var_particle_velocity[YZ]              -0.065978         0.17298      1.8469e-05
m  var_particle_velocity[XZ]               -0.28359          1.8428      0.00019176
m  particle_cumulative_weight_c1                  0               0               0
m  mean_particle_volume_fraction_c1               0               0               0
m  mean_particle_residence_time_c1                0               0               0
m  var_particle_residence_time_c1                 0               0               0
m  mean_particle_mass_c1                          0               0               0
m  var_particle_mass_c1                           0               0               0
m  mean_particle_diameter_c1                      0               0               0
m  var_particle_diameter_c1                       0               0               0
m  mean_particle_velocity_c1[X]                   0               0               0
m  mean_particle_velocity_c1[Y]                   0               0               0
m  mean_particle_velocity_c1[Z]                   0               0               0
m  ǁmean_particle_velocity_c1ǁ                    0               0               0
m  var_particle_velocity_c1[XX]                   0               0               0
m  var_particle_velocity_c1[YY]                   0               0               0
m  var_particle_velocity_c1[ZZ]                   0               0               0
m  var_particle_velocity_c1[XY]                   0               0               0
m  var_particle_velocity_c1[YZ]                   0               0               0
m  var_particle_velocity_c1[XZ]                   0               0               0
m  TimeAverage_vx                       -0.00071568       0.0067795      1.6046e-06
m  TimeAverage_vz                           -1.9147          6.1083          3.6076

  ** Field values on boundary_faces
     ------------------------------

   field                                    minimum         maximum        set mean    spatial mean
-  --------------------------------  --------------  --------------  --------------  --------------
m  Part_impact_number                             0        0.027835      4.7759e-06
m  Part_bndy_mass_flux                     -0.98578          3.4754       0.0003656
m  particle_events_weight_c1                      0               0               0
m  particle_mass_flux_density_c1                  0               0               0
m  Part_impact_angle                              0         0.89281      9.9056e-05
m  var_particle_impact_angle                      0         0.22725      2.5786e-05
m  mean_particle_impact_angle_c1                  0               0               0
m  var_particle_impact_angle_c1                   0               0               0
m  Part_impact_velocity                           0          4.0612       0.0004605
m  var_particle_impact_velocity                   0        0.012792      1.2312e-06
m  mean_particle_impact_velocity_c1               0               0               0
m  var_particle_impact_velocity_c1                0               0               0
v  Yplus                                          0          32.882         0.12963         0.58535


  ** Computed values on cells
     ------------------------

   criterion               minimum         maximum        set mean    spatial mean
   ---------------  --------------  --------------  --------------  --------------
   Courant/Fourier        0.032991          3.1991          1.1396         0.95701


  ** Temporal moment accumulated weights
     -----------------------------------

   id   n it.             value
   ---- -------- --------------
   0    3504              3.504

  ** Particle moment accumulated weights
     -----------------------------------

   id   n it.           minimum        maximum       set mean
   ---- -------- -------------- -------------- --------------
   0    1                     0      0.0063602     2.5645e-06
   1    1                 0.003          0.003
   2    1                     0              0              0
   3    1                 0.003          0.003
   4    1                     0       0.027835     4.7759e-06
   5    1                     0              0              0

   ** INFORMATION ON THE LAGRANGIAN CALCULATION
--------------------------------------------------------------------------------

   Current number of particles (with and without statistical weight) :

ln  newly injected                                 10      1.59006E+01
ln  out, or deposited and eliminated               12      1.48408E+01
ln  deposited                                       0      0.00000E+00
ln  lost in the location stage                      0
ln  total number at the end of the time step       15      2.22186E+01
% of lost particles (restart(s) included):    0.0000E+00
--------------------------------------------------------------------------------
   Zone  Class  Mass flow rate(kg/s)      Name (type)
     1         -1.46191e-06               BC_1 (inlet)
--------------------------------------------------------------------------------
   Unsteady two-way coupling source terms:
--------------------------------------------------------------------------------
Maximum particle volume fraction:    1.09234e-03
Maximum particle mass fraction:      2.28921e+00
Number of cells with a particle volume fraction greater than 0.8:          0
--------------------------------------------------------------------------------

 INSTANT    0.700400000E+01   TIME STEP NUMBER            7004
 ============================================================= 




   ** BOUNDARY MASS FLOW INFORMATION
      ------------------------------

---------------------------------------------------------------
Boundary type          Code    Nb faces           Mass flow
---------------------------------------------------------------
Inlet                     2          43        -0.494628865E-02
Smooth wall               5         147         0.000000000E+00
Rough wall                6           0         0.000000000E+00
Symmetry                  4       17328         0.000000000E+00
Free outlet               3          76         0.494628866E-02
Free inlet               14           0         0.000000000E+00
Convective inlet         16           0         0.000000000E+00
Free surface             15           0         0.000000000E+00
Undefined                 1           0         0.000000000E+00
---------------------------------------------------------------


   ** BOUNDARY CONDITIONS FOR SMOOTH WALLS
   ---------------------------------------
------------------------------------------------------------
                                         Minimum     Maximum
------------------------------------------------------------
   Rel velocity at the wall uiptn :  0.14506E-01 0.38753E+01
   Friction velocity        uet   :  0.16895E-02 0.47769E+00
   Friction velocity        uk    :  0.10501E+00 0.30008E+00
   Dimensionless distance   yplus :  0.11831E+02 0.32978E+02
   ------------------------------------------------------
   Nb of reversal of the velocity at the wall   :          0
   Nb of faces within the viscous sub-layer     :          0
   Total number of wall faces                   :        147
------------------------------------------------------------



   ** INFORMATION ON CONVERGENCE
      --------------------------
----------------------------------------------------------------------------
   Variable     Rhs norm      N_iter  Norm. residual   Drift   Time residual
----------------------------------------------------------------------------
c  Velocity     0.11060E+00       7   0.49793E-03   0.14542E+00 0.27350E+01 
c  Velocity[X]                                      0.62367E-01 
c  Velocity[Y]                                      0.38890E-06 
c  Velocity[Z]                                      0.83051E-01 
c  Pressure     0.73960E-05      10   0.17353E-07   0.90529E-02 0.15900E+02 
c  Rij          0.39090E-02      38   0.14757E-03   0.78077E-02 0.13428E+02 
c  Rij[XX]                                          0.16745E-02 
c  Rij[YY]                                          0.12496E-02 
c  Rij[ZZ]                                          0.41352E-02 
c  Rij[XY]                                          0.29288E-08 
c  Rij[YZ]                                          0.61839E-08 
c  Rij[XZ]                                          0.74837E-03 
c  epsilon      0.10799E+14       1   0.34328E-15   0.62516E+10 0.99909E+03 
----------------------------------------------------------------------------
  
  

  ** Clippings for computed fields
     -----------------------------

   field       initial min     initial max  clips to min  clips to max
-  -------  --------------  --------------  ------------  ------------
a  Rij          0.00027145                            20
a  Rij[XX]     -2.0068e-11                            20
a  Rij[YY]      1.2428e-13                            20
a  Rij[ZZ]     -2.1844e-09                            20
a  Rij[XY]     -0.00016643                            20
a  Rij[YZ]     -0.00021444                            20
a  Rij[XZ]        -0.43663                            20
a  epsilon


  ** Field values on cells
     ---------------------

   field                                    minimum         maximum        set mean    spatial mean
-  --------------------------------  --------------  --------------  --------------  --------------
v  Velocity[X]                             -0.86042         0.79407       -0.068619       -0.048349
v  Velocity[Y]                           -0.0047722       0.0067458     -1.7915e-06      4.0257e-06
v  Velocity[Z]                              -1.7648          6.1017          3.6373          4.2801
v  ǁVelocityǁ                              0.012751          6.1019          3.7881          4.3105
v  Pressure                                 -11.984         0.91778         -1.9323        -0.70542
v  Rij[XX]                               7.3846e-13         0.72035         0.10495        0.067115
v  Rij[YY]                               7.3846e-13         0.59436         0.10556        0.069638
v  Rij[ZZ]                               7.3846e-13         0.90067         0.14856         0.10524
v  Rij[XY]                              -0.00016643      0.00016528      4.6253e-07      1.6728e-07
v  Rij[YZ]                              -0.00021444      0.00037786      2.1879e-07      2.4442e-07
v  Rij[XZ]                                 -0.43663         0.15352       -0.029758       -0.007057
v  epsilon                                5.826e-10      1.2474e+06           383.8          10.816
v  TurbVisc                              8.5407e-29       0.0038216       0.0014245       0.0012758
v  CourantNb                               0.012796          1.7516         0.47026         0.37178
v  FourierNb                               0.010056          1.7804         0.66995         0.58531
v  total_pressure                        1.0131e+05      1.0134e+05      1.0133e+05      1.0133e+05
m  Part_statis_weight                             0        0.006396      2.8631e-06
m  Part_vol_frac                                  0      0.00058557      1.9781e-07
m  Part_resid_time                                0         0.00349      1.2287e-06
m  var_particle_residence_time                    0      4.4816e-07      9.0303e-11
m  mean_particle_mass                             0      4.2009e-10       2.551e-13
m  var_particle_mass                              0      5.2213e-20      1.6727e-23
m  mean_particle_diameter                         0      6.8741e-05      4.8421e-08
m  var_particle_diameter                          0      4.9547e-10       1.167e-13
m  Part_velocity[X]                         -3.4615          3.7523     -9.8228e-05
m  Part_velocity[Y]                        -0.23256         0.88736      7.8843e-05
m  Part_velocity[Z]                               0          3.9549       0.0014856
m  ǁPart_velocityǁ                                0          3.9553       0.0025019
m  var_particle_velocity[XX]                      0          3.7602      0.00096332
m  var_particle_velocity[YY]                      0          1.5615      0.00019631
m  var_particle_velocity[ZZ]                      0          2.9907       0.0010392
m  var_particle_velocity[XY]               -0.12734         0.48978      8.6518e-05
m  var_particle_velocity[YZ]                      0          0.5129      9.3649e-05
m  var_particle_velocity[XZ]                -3.3317          2.8407       0.0002019
m  particle_cumulative_weight_c1                  0               0               0
m  mean_particle_volume_fraction_c1               0               0               0
m  mean_particle_residence_time_c1                0               0               0
m  var_particle_residence_time_c1                 0               0               0
m  mean_particle_mass_c1                          0               0               0
m  var_particle_mass_c1                           0               0               0
m  mean_particle_diameter_c1                      0               0               0
m  var_particle_diameter_c1                       0               0               0
m  mean_particle_velocity_c1[X]                   0               0               0
m  mean_particle_velocity_c1[Y]                   0               0               0
m  mean_particle_velocity_c1[Z]                   0               0               0
m  ǁmean_particle_velocity_c1ǁ                    0               0               0
m  var_particle_velocity_c1[XX]                   0               0               0
m  var_particle_velocity_c1[YY]                   0               0               0
m  var_particle_velocity_c1[ZZ]                   0               0               0
m  var_particle_velocity_c1[XY]                   0               0               0
m  var_particle_velocity_c1[YZ]                   0               0               0
m  var_particle_velocity_c1[XZ]                   0               0               0
m  TimeAverage_vx                       -0.00071537       0.0067794      1.6037e-06
m  TimeAverage_vz                           -1.9146          6.1082          3.6076

  ** Field values on boundary_faces
     ------------------------------

   field                                    minimum         maximum        set mean    spatial mean
-  --------------------------------  --------------  --------------  --------------  --------------
m  Part_impact_number                             0        0.031801       7.587e-06
m  Part_bndy_mass_flux                      -1.4537          3.6173      3.9097e-05
m  particle_events_weight_c1                      0               0               0
m  particle_mass_flux_density_c1                  0               0               0
m  Part_impact_angle                              0          1.5172      0.00042935
m  var_particle_impact_angle                      0         0.19737       4.228e-05
m  mean_particle_impact_angle_c1                  0               0               0
m  var_particle_impact_angle_c1                   0               0               0
m  Part_impact_velocity                           0          3.9402        0.001469
m  var_particle_impact_velocity                   0          0.2371      1.3576e-05
m  mean_particle_impact_velocity_c1               0               0               0
m  var_particle_impact_velocity_c1                0               0               0
v  Yplus                                          0          32.978         0.12943         0.58533


  ** Computed values on cells
     ------------------------

   criterion               minimum         maximum        set mean    spatial mean
   ---------------  --------------  --------------  --------------  --------------
   Courant/Fourier        0.033919          3.1991          1.1402          0.9571


  ** Temporal moment accumulated weights
     -----------------------------------

   id   n it.             value
   ---- -------- --------------
   0    3505              3.505

  ** Particle moment accumulated weights
     -----------------------------------

   id   n it.           minimum        maximum       set mean
   ---- -------- -------------- -------------- --------------
   0    1                     0       0.006396     2.8631e-06
   1    1                 0.004          0.004
   2    1                     0              0              0
   3    1                 0.004          0.004
   4    1                     0       0.031801      7.587e-06
   5    1                     0              0              0

   ** INFORMATION ON THE LAGRANGIAN CALCULATION
--------------------------------------------------------------------------------

   Current number of particles (with and without statistical weight) :

ln  newly injected                                 10      1.27919E+01
ln  out, or deposited and eliminated                7      1.02047E+01
ln  deposited                                       0      0.00000E+00
ln  lost in the location stage                      0
ln  total number at the end of the time step       18      2.48057E+01
% of lost particles (restart(s) included):    0.0000E+00
--------------------------------------------------------------------------------
   Zone  Class  Mass flow rate(kg/s)      Name (type)
     1          1.83467e-06               BC_1 (inlet)
--------------------------------------------------------------------------------
   Unsteady two-way coupling source terms:
--------------------------------------------------------------------------------
Maximum particle volume fraction:    9.96693e-04
Maximum particle mass fraction:      2.08876e+00
Number of cells with a particle volume fraction greater than 0.8:          0
--------------------------------------------------------------------------------

 INSTANT    0.700500000E+01   TIME STEP NUMBER            7005
 ============================================================= 




   ** BOUNDARY MASS FLOW INFORMATION
      ------------------------------

---------------------------------------------------------------
Boundary type          Code    Nb faces           Mass flow
---------------------------------------------------------------
Inlet                     2          43        -0.494628865E-02
Smooth wall               5         147         0.000000000E+00
Rough wall                6           0         0.000000000E+00
Symmetry                  4       17328         0.000000000E+00
Free outlet               3          76         0.494628865E-02
Free inlet               14           0         0.000000000E+00
Convective inlet         16           0         0.000000000E+00
Free surface             15           0         0.000000000E+00
Undefined                 1           0         0.000000000E+00
---------------------------------------------------------------


   ** BOUNDARY CONDITIONS FOR SMOOTH WALLS
   ---------------------------------------
------------------------------------------------------------
                                         Minimum     Maximum
------------------------------------------------------------
   Rel velocity at the wall uiptn :  0.12241E-01 0.38739E+01
   Friction velocity        uet   :  0.14150E-02 0.47732E+00
   Friction velocity        uk    :  0.10238E+00 0.30009E+00
   Dimensionless distance   yplus :  0.11534E+02 0.33238E+02
   ------------------------------------------------------
   Nb of reversal of the velocity at the wall   :          0
   Nb of faces within the viscous sub-layer     :          0
   Total number of wall faces                   :        147
------------------------------------------------------------



   ** INFORMATION ON CONVERGENCE
      --------------------------
----------------------------------------------------------------------------
   Variable     Rhs norm      N_iter  Norm. residual   Drift   Time residual
----------------------------------------------------------------------------
c  Velocity     0.11060E+00       7   0.55096E-03   0.13756E+00 0.26600E+01 
c  Velocity[X]                                      0.58468E-01 
c  Velocity[Y]                                      0.34544E-06 
c  Velocity[Z]                                      0.79090E-01 
c  Pressure     0.68289E-05      10   0.17619E-07   0.83583E-02 0.16219E+02 
c  Rij          0.41892E-02      44   0.14246E-03   0.76316E-02 0.13297E+02 
c  Rij[XX]                                          0.16337E-02 
c  Rij[YY]                                          0.12021E-02 
c  Rij[ZZ]                                          0.40543E-02 
c  Rij[XY]                                          0.14420E-08 
c  Rij[YZ]                                          0.28012E-08 
c  Rij[XZ]                                          0.74157E-03 
c  epsilon      0.34090E+20       1   0.22827E-16   0.41234E+17 0.99968E+03 
----------------------------------------------------------------------------
  
  

  ** Clippings for computed fields
     -----------------------------

   field       initial min     initial max  clips to min  clips to max
-  -------  --------------  --------------  ------------  ------------
a  Rij           0.0067371                            13
a  Rij[XX]        -0.00408                            13
a  Rij[YY]      -1.483e-05                            13
a  Rij[ZZ]      -0.0034711                            13
a  Rij[XY]     -0.00016373                            13
a  Rij[YZ]     -0.00013891                            13
a  Rij[XZ]        -0.43165                            13
a  epsilon     -1.8813e-06                             1


  ** Field values on cells
     ---------------------

   field                                    minimum         maximum        set mean    spatial mean
-  --------------------------------  --------------  --------------  --------------  --------------
v  Velocity[X]                             -0.78815         0.96513       -0.068396       -0.048266
v  Velocity[Y]                            -0.004471       0.0075173     -1.5405e-06      4.0352e-06
v  Velocity[Z]                              -1.7605          6.1045          3.6367          4.2801
[...]
a  Rij[YY]     -1.0925e-07                            98
a  Rij[ZZ]        -0.40668                            98
a  Rij[XY]         -2.5989                            98
a  Rij[YZ]         -3.9996                            98
a  Rij[XZ]         -610.97                            98
a  epsilon     -1.7733e+29                            59


  ** Field values on cells
     ---------------------

   field                                    minimum         maximum        set mean    spatial mean
-  --------------------------------  --------------  --------------  --------------  --------------
v  Velocity[X]                              -156.61          112.31       0.0036022       -0.047705
v  Velocity[Y]                              -2.3809          3.1878       0.0013556      0.00013592
v  Velocity[Z]                              -293.16          217.26          3.4309          4.2801
v  ǁVelocityǁ                              0.035708          329.19          7.2401          5.7308
v  Pressure                                 -3689.6          703.24          -92.02         -50.526
v  Rij[XX]                               2.2882e-09          1203.9          72.065          37.056
v  Rij[YY]                               7.1803e-10           977.4          75.705          37.353
v  Rij[ZZ]                               2.2882e-09          4683.4          313.41          157.71
v  Rij[XY]                                  -2.1809          2.6672        0.006875       0.0028327
v  Rij[YZ]                                  -3.4514          4.2477         0.01159        0.004871
v  Rij[XZ]                                  -455.25          395.54         -3.0478         0.96175
v  epsilon                                    1e-24      5.6932e+30      6.5713e+26      7.0951e+24
v  TurbVisc                              1.3682e-48      4.0725e+07          6747.5          1019.5
v  CourantNb                               0.018108           140.7         0.87224         0.55108
v  FourierNb                              0.0093182      1.1075e+10      3.9384e+06      4.9049e+05
v  total_pressure                             97637      1.0203e+05      1.0124e+05      1.0128e+05
m  Part_statis_weight                             0        0.011222      5.3743e-06
m  Part_vol_frac                                  0      0.00084037      3.1705e-07
m  Part_resid_time                                0         0.01349      1.4597e-05
m  var_particle_residence_time                    0      8.6122e-06      1.1224e-09
m  mean_particle_mass                             0       7.924e-10      8.2478e-13
m  var_particle_mass                              0      8.0543e-20      1.4393e-23
m  mean_particle_diameter                         0      8.4934e-05      1.5038e-07
m  var_particle_diameter                          0      1.3453e-10      3.9693e-14
m  Part_velocity[X]                         -4.0321          39.541       0.0063308
m  Part_velocity[Y]                         -23.704          13.351      -0.0037343
m  Part_velocity[Z]                         -14.853          24.311       0.0059194
m  ǁPart_velocityǁ                                0          47.957        0.019307
m  var_particle_velocity[XX]                      0          8.0925       0.0011807
m  var_particle_velocity[YY]                      0           1.415      0.00025999
m  var_particle_velocity[ZZ]                      0          3.8591      0.00052306
m  var_particle_velocity[XY]               -0.39207          1.1122      8.0538e-05
m  var_particle_velocity[YZ]             -0.0056655         0.94392      0.00011647
m  var_particle_velocity[XZ]                -5.1223         0.68887     -0.00050801
m  particle_cumulative_weight_c1                  0               0               0
m  mean_particle_volume_fraction_c1               0               0               0
m  mean_particle_residence_time_c1                0               0               0
m  var_particle_residence_time_c1                 0               0               0
m  mean_particle_mass_c1                          0               0               0
m  var_particle_mass_c1                           0               0               0
m  mean_particle_diameter_c1                      0               0               0
m  var_particle_diameter_c1                       0               0               0
m  mean_particle_velocity_c1[X]                   0               0               0
m  mean_particle_velocity_c1[Y]                   0               0               0
m  mean_particle_velocity_c1[Z]                   0               0               0
m  ǁmean_particle_velocity_c1ǁ                    0               0               0
m  var_particle_velocity_c1[XX]                   0               0               0
m  var_particle_velocity_c1[YY]                   0               0               0
m  var_particle_velocity_c1[ZZ]                   0               0               0
m  var_particle_velocity_c1[XY]                   0               0               0
m  var_particle_velocity_c1[YZ]                   0               0               0
m  var_particle_velocity_c1[XZ]                   0               0               0
m  TimeAverage_vx                        -0.0028826       0.0067398      3.2362e-06
m  TimeAverage_vz                           -1.9071          6.1098          3.6076

  ** Field values on boundary_faces
     ------------------------------

   field                                    minimum         maximum        set mean    spatial mean
-  --------------------------------  --------------  --------------  --------------  --------------
m  Part_impact_number                             0        0.034626      1.2662e-05
m  Part_bndy_mass_flux                      -2.2431         0.93699     -0.00012888
m  particle_events_weight_c1                      0               0               0
m  particle_mass_flux_density_c1                  0               0               0
m  Part_impact_angle                              0          2.0464       0.0022305
m  var_particle_impact_angle                      0         0.54977      0.00012804
m  mean_particle_impact_angle_c1                  0               0               0
m  var_particle_impact_angle_c1                   0               0               0
m  Part_impact_velocity                           0          47.957        0.022957
m  var_particle_impact_velocity                   0          509.79        0.086866
m  mean_particle_impact_velocity_c1               0               0               0
m  var_particle_impact_velocity_c1                0               0               0
v  Yplus                                          0          36.862         0.12584         0.58493


  ** Computed values on cells
     ------------------------

   criterion               minimum         maximum        set mean    spatial mean
   ---------------  --------------  --------------  --------------  --------------
   Courant/Fourier        0.039637      1.1075e+10      3.9384e+06       4.905e+05


  ** Temporal moment accumulated weights
     -----------------------------------

   id   n it.             value
   ---- -------- --------------
   0    3515              3.515

  ** Particle moment accumulated weights
     -----------------------------------

   id   n it.           minimum        maximum       set mean
   ---- -------- -------------- -------------- --------------
   0    1                     0       0.011222     5.3743e-06
   1    1                 0.014          0.014
   2    1                     0              0              0
   3    1                 0.014          0.014
   4    1                     0       0.034626     1.2662e-05
   5    1                     0              0              0

   ** INFORMATION ON THE LAGRANGIAN CALCULATION
--------------------------------------------------------------------------------

   Current number of particles (with and without statistical weight) :

ln  newly injected                                 10      1.44295E+01
ln  out, or deposited and eliminated                7      7.57192E+00
ln  deposited                                       0      0.00000E+00
ln  lost in the location stage                      0
ln  total number at the end of the time step       39      4.65631E+01
% of lost particles (restart(s) included):    0.0000E+00
--------------------------------------------------------------------------------
   Zone  Class  Mass flow rate(kg/s)      Name (type)
     1          1.18248e-06               BC_1 (inlet)
--------------------------------------------------------------------------------
   Unsteady two-way coupling source terms:
--------------------------------------------------------------------------------
Maximum particle volume fraction:    8.62575e-04
Maximum particle mass fraction:      1.80769e+00
Number of cells with a particle volume fraction greater than 0.8:          0
--------------------------------------------------------------------------------

 INSTANT    0.701500000E+01   TIME STEP NUMBER            7015
 ============================================================= 




   ** BOUNDARY MASS FLOW INFORMATION
      ------------------------------

---------------------------------------------------------------
Boundary type          Code    Nb faces           Mass flow
---------------------------------------------------------------
Inlet                     2          43        -0.494628865E-02
Smooth wall               5         147         0.000000000E+00
Rough wall                6           0         0.000000000E+00
Symmetry                  4       17328         0.000000000E+00
Free outlet               3          76         0.494628844E-02
Free inlet               14           0         0.000000000E+00
Convective inlet         16           0         0.000000000E+00
Free surface             15           0         0.000000000E+00
Undefined                 1           0         0.000000000E+00
---------------------------------------------------------------


   ** BOUNDARY CONDITIONS FOR SMOOTH WALLS
   ---------------------------------------
------------------------------------------------------------
                                         Minimum     Maximum
------------------------------------------------------------
   Rel velocity at the wall uiptn :  0.75603E-01 0.70699E+01
   Friction velocity        uet   :  0.90637E-02 0.81587E+00
   Friction velocity        uk    :  0.68276E-01 0.30460E+00
   Dimensionless distance   yplus :  0.76922E+01 0.30109E+02
   ------------------------------------------------------
   Nb of reversal of the velocity at the wall   :          0
   Nb of faces within the viscous sub-layer     :          0
   Total number of wall faces                   :        147
------------------------------------------------------------


  n_iter: 10000, res_abs:  1.1296e+27, res_nor:  3.9772e+05, norm:  2.8403e+21, res_init:  2.1901e+32
 @@ Warning: non convergence

   ** INFORMATION ON CONVERGENCE
      --------------------------
----------------------------------------------------------------------------
   Variable     Rhs norm      N_iter  Norm. residual   Drift   Time residual
----------------------------------------------------------------------------
c  Velocity     0.65721E+00      27   0.75121E+00   0.82424E+05 0.95063E+03 
c  Velocity[X]                                      0.18810E+05 
c  Velocity[Y]                                      0.38779E+01 
c  Velocity[Z]                                      0.63610E+05 
c  Pressure     0.27309E-01      17   0.86998E-08   0.84751E+00 0.83139E+03 
c  Rij          0.28403E+22   10000   0.20704E-07   0.11120E+10 0.77570E+03 
c  Rij[XX]                                          0.55759E+08 
c  Rij[YY]                                          0.52329E+08 
c  Rij[ZZ]                                          0.10013E+10 
c  Rij[XY]                                          0.24954E+02 
c  Rij[YZ]                                          0.61637E+02 
c  Rij[XZ]                                          0.25811E+07 
c  epsilon      0.20712E+75       1   0.77671E-15   0.12925E+85 0.10000E+04 
----------------------------------------------------------------------------
  
  

  ** Clippings for computed fields
     -----------------------------

   field       initial min     initial max  clips to min  clips to max
-  -------  --------------  --------------  ------------  ------------
a  Rij              4741.8                            43
a  Rij[XX]         -0.5456                            43
a  Rij[YY]       -0.088954                            43
a  Rij[ZZ]         -4741.8                            43
a  Rij[XY]        -0.34267                            43
a  Rij[YZ]         -0.5416                            43
a  Rij[XZ]         -107.76                            43
a  epsilon     -8.0902e+29                            13


  ** Field values on cells
     ---------------------

   field                                    minimum         maximum        set mean    spatial mean
-  --------------------------------  --------------  --------------  --------------  --------------
v  Velocity[X]                              -128.61          56.438        0.014425       -0.046804
v  Velocity[Y]                             -0.49665          1.5037      0.00018631      0.00023654
v  Velocity[Z]                              -95.962          87.627          3.5664            4.28
v  ǁVelocityǁ                              0.079683          154.84          8.8235          6.6182
v  Pressure                                 -3617.1          295.94         -383.56         -201.82
v  Rij[XX]                               3.1498e-11          995.89          234.11          113.57
v  Rij[YY]                               7.4117e-10          1000.9          233.65          113.24
v  Rij[ZZ]                               2.1347e-09          4407.5          1007.9          487.02
v  Rij[XY]                                 -0.34267         0.58033      0.00053195      0.00053684
v  Rij[YZ]                                  -0.5416         0.88695      0.00082438      0.00083096
v  Rij[XZ]                                  -107.76          209.24           1.017         0.60478
v  epsilon                                  1.1e-24      3.0105e+43      4.7819e+39      5.1914e+37
v  TurbVisc                               2.195e-49      2.8324e+20      3.2692e+16      1.1766e+14
v  CourantNb                               0.043087           45.04          1.8757         0.97796
v  FourierNb                              0.0092704      1.0917e+23      1.6018e+19      7.4448e+16
v  total_pressure                             97709      1.0162e+05      1.0095e+05      1.0113e+05
m  Part_statis_weight                             0       0.0060773      4.1168e-06
m  Part_vol_frac                                  0      0.00032273      1.7889e-07
m  Part_resid_time                                0         0.01449      1.6669e-05
m  var_particle_residence_time                    0      8.7145e-06      1.2345e-09
m  mean_particle_mass                             0       7.924e-10      8.3011e-13
m  var_particle_mass                              0      8.0543e-20      2.8238e-23
m  mean_particle_diameter                         0      8.4934e-05      1.4492e-07
m  var_particle_diameter                          0      3.3851e-10      1.0376e-13
m  Part_velocity[X]                      -7.074e+05           13282            -nan
m  Part_velocity[Y]                         -14.253           14004            -nan
m  Part_velocity[Z]                         -2.1487      1.5513e+06            -nan
m  ǁPart_velocityǁ                                0       1.705e+06            -nan
m  var_particle_velocity[XX]                      0          0.9553            -nan
m  var_particle_velocity[YY]                      0         0.62255            -nan
m  var_particle_velocity[ZZ]                      0           3.662            -nan
m  var_particle_velocity[XY]               -0.15771         0.01298            -nan
m  var_particle_velocity[YZ]                -1.0192          1.1131            -nan
m  var_particle_velocity[XZ]                      0          1.6732            -nan
m  particle_cumulative_weight_c1                  0               0               0
m  mean_particle_volume_fraction_c1               0               0               0
m  mean_particle_residence_time_c1                0               0               0
m  var_particle_residence_time_c1                 0               0               0
m  mean_particle_mass_c1                          0               0               0
m  var_particle_mass_c1                           0               0               0
m  mean_particle_diameter_c1                      0               0               0
m  var_particle_diameter_c1                       0               0               0
m  mean_particle_velocity_c1[X]                   0               0               0
m  mean_particle_velocity_c1[Y]                   0               0               0
m  mean_particle_velocity_c1[Z]                   0               0               0
m  ǁmean_particle_velocity_c1ǁ                    0               0               0
m  var_particle_velocity_c1[XX]                   0               0               0
m  var_particle_velocity_c1[YY]                   0               0               0
m  var_particle_velocity_c1[ZZ]                   0               0               0
m  var_particle_velocity_c1[XY]                   0               0               0
m  var_particle_velocity_c1[YZ]                   0               0               0
m  var_particle_velocity_c1[XZ]                   0               0               0
m  TimeAverage_vx                        -0.0029535       0.0067403      3.2883e-06
m  TimeAverage_vz                           -1.8982          6.1117          3.6076

  ** Field values on boundary_faces
     ------------------------------

   field                                    minimum         maximum        set mean    spatial mean
-  --------------------------------  --------------  --------------  --------------  --------------
m  Part_impact_number                             0        0.023079       7.732e-06
m  Part_bndy_mass_flux                     -0.76221          1.0438      0.00011226
m  particle_events_weight_c1                      0               0               0
m  particle_mass_flux_density_c1                  0               0               0
m  Part_impact_angle                              0          2.6911       0.0033502
m  var_particle_impact_angle                      0         0.24424      5.7777e-05
m  mean_particle_impact_angle_c1                  0               0               0
m  var_particle_impact_angle_c1                   0               0               0
m  Part_impact_velocity                           0       1.705e+06          1560.2
m  var_particle_impact_velocity                   0         0.19331      2.0059e-05
m  mean_particle_impact_velocity_c1               0               0               0
m  var_particle_impact_velocity_c1                0               0               0
v  Yplus                                          0          30.109         0.12656         0.58375



../../../src/base/cs_log_iteration.c:840: Fatal error.

Invalid (not-a-number) values detected for a field.


Call stack:
   1: 0x7fbe57d3735a <+0x17f35a>                      (libsaturne-6.1.so)
   2: 0x7fbe57d3765c <cs_log_iteration+0x1c>          (libsaturne-6.1.so)
   3: 0x7fbe57c848ce <caltri_+0x2320>                 (libsaturne-6.1.so)
   4: 0x7fbe58c45a68 <main+0x6e8>                     (libcs_solver-6.1.so)
   5: 0x7fbe575b20b3 <__libc_start_main+0xf3>         (libc.so.6)
   6: 0x5636879a218e <_start+0x2e>                    (cs_solver)
End of stack

