QUALITY ASSURANCE
=================
This version of Code_Saturne is a development version that
has not been validated under EDF quality assurance.
