#!/bin/bash

# Ensure the correct command is found:
export PATH=/home/yohann-ws2/Code_Saturne/6.0-beta_211119/code_saturne-6.0.0-patch/arch/Linux_x86_64/bin:$PATH

# Run command:
\code_saturne run --param setup.xml --threads-per-task 2 --nprocs 6
