.\"
.\"  This file is part of the Code_Saturne Kernel, element of the
.\"  Code_Saturne CFD tool.
.\"
.\"  Copyright (C) 2009 EDF S.A., France
.\"
.\"  contact: saturne-support@edf.fr
.\"
.\"  The Code_Saturne Kernel is free software; you can redistribute it
.\"  and/or modify it under the terms of the GNU General Public License
.\"  as published by the Free Software Foundation; either version 2 of
.\"  the License, or (at your option) any later version.
.\"
.\"  The Code_Saturne Kernel is distributed in the hope that it will be
.\"  useful, but WITHOUT ANY WARRANTY; without even the implied warranty
.\"  of MERCHANTABILITY or FITNESS FOR A PARTICULAR PURPOSE.  See the
.\"  GNU General Public License for more details.
.\"
.\"  You should have received a copy of the GNU General Public License
.\"  along with the Code_Saturne Preprocessor; if not, write to the
.\"  Free Software Foundation, Inc.,
.\"  51 Franklin St, Fifth Floor,
.\"  Boston, MA  02110-1301  USA
.\"
.TH CS_IO_DUMP 1 2009-02-04 "" "Code_Saturne commands"
.SH NAME
cs_io_dump \- Dump headers and optionally content of a Code_Saturne
preprocessor, partitioner or restart file.
.SH SYNOPSIS
.B cs_io_dump
.RI [options]
.RI <filename>
.br
.SH DESCRIPTION
This programs dumps Code_Saturne I/O files (created by the
preprocessor, the partitioner or the kernel).
.SH OPTIONS
.B
.IP "-n <level>"
Number of the first and last elements of each section to output
(default: print headers only).
.B
.IP -h
Print a usage message and exit.
.SH SEE ALSO
.BR cs_partition (1),
.BR cs_preprocess (1)
.BR cs_solver (1)
