.\"
.\"  This file is part of the Code_Saturne Kernel, element of the
.\"  Code_Saturne CFD tool.
.\"
.\"  Copyright (C) 2009 EDF S.A., France
.\"
.\"  contact: saturne-support@edf.fr
.\"
.\"  The Code_Saturne Kernel is free software; you can redistribute it
.\"  and/or modify it under the terms of the GNU General Public License
.\"  as published by the Free Software Foundation; either version 2 of
.\"  the License, or (at your option) any later version.
.\"
.\"  The Code_Saturne Kernel is distributed in the hope that it will be
.\"  useful, but WITHOUT ANY WARRANTY; without even the implied warranty
.\"  of MERCHANTABILITY or FITNESS FOR A PARTICULAR PURPOSE.  See the
.\"  GNU General Public License for more details.
.\"
.\"  You should have received a copy of the GNU General Public License
.\"  along with the Code_Saturne Preprocessor; if not, write to the
.\"  Free Software Foundation, Inc.,
.\"  51 Franklin St, Fifth Floor,
.\"  Boston, MA  02110-1301  USA
.\"
.TH CS_PLOT_PROBES 1 2009-03-15 "" "Code_Saturne commands"
.SH NAME
cs_plot_probes \- Wrapper around XmGrace visualization tool to plot
Code_Saturne variables at monitoring probes.
.SH SYNOPSIS
.B cs_plot_probes
.RI <monitoring_file>
.br
.SH DESCRIPTION
The
.B cs_plot_probes
script runs
.B xmgrace -nxy
command on a Code_Saturne time monitoring file (chronological records)
after removing the first column (in order to have physical time on the
X axis).
.SH OPTIONS
.B
.IP -h
Print a usage message and exit.
.SH EXAMPLES
cs_plot_probes VelocitU.hst
.SH SEE ALSO
.BR cs_check_consistency (1),
.BR cs_check_mesh (1),
.BR cs_create (1)
