# Fdb version 3
["pdflatex"] 1574266259 "/home/panos/Runs/Code_Saturne/HERCULE/HERCULE-6.0.0/DOCS/hercule.tex" "/home/panos/Runs/Code_Saturne/HERCULE/HERCULE-6.0.0/DOCS/hercule.pdf" "hercule" 1574266259
  "/dev/null" 1574252677 0 d41d8cd98f00b204e9800998ecf8427e ""
  "/home/panos/Runs/Code_Saturne/HERCULE/HERCULE-6.0.0/DOCS/hercule-pics.pdf" 0 -1 0 ""
  "/home/panos/Runs/Code_Saturne/HERCULE/HERCULE-6.0.0/DOCS/hercule.aux" 1574266259 8 a94a2480d3289e625eea47cd1b285758 ""
  "/home/panos/Runs/Code_Saturne/HERCULE/HERCULE-6.0.0/DOCS/hercule.tex" 1574266258 43258 6c81f7d3f129a11944bd2a71e511a43d ""
  "/home/panos/Runs/Code_Saturne/HERCULE/HERCULE-6.0.0/DOCS/hercule.toc" 0 -1 0 ""
  "/usr/share/texlive/texmf-dist/fonts/enc/dvips/base/8r.enc" 1564755343 4850 80dc9bab7f31fb78a000ccfed0e27cab ""
  "/usr/share/texlive/texmf-dist/fonts/enc/dvips/cm-super/cm-super-t1.enc" 1136849721 2971 def0b6c1f0b107b3b936def894055589 ""
  "/usr/share/texlive/texmf-dist/fonts/map/pdftex/updmap/pdftex.map" 1564271645 4638270 9e79e5d32d99f71b6c708a7ecfe62e7a ""
  "/usr/share/texlive/texmf-dist/fonts/tfm/adobe/helvetic/phvb7t.tfm" 1136768653 2240 eb56c13537f4d8a0bd3fafc25572b1bd ""
  "/usr/share/texlive/texmf-dist/fonts/tfm/adobe/helvetic/phvb8r.tfm" 1136768653 4484 b828043cbd581d289d955903c1339981 ""
  "/usr/share/texlive/texmf-dist/fonts/tfm/adobe/helvetic/phvr8r.tfm" 1136768653 4712 9ef4d7d106579d4b136e1529e1a4533c ""
  "/usr/share/texlive/texmf-dist/fonts/tfm/adobe/helvetic/phvr8t.tfm" 1136768653 7040 b2bd27e2bfe6f6948cbc3239cae7444f ""
  "/usr/share/texlive/texmf-dist/fonts/tfm/adobe/palatino/pplbi8r.tfm" 1136768653 2788 e071e05f6ae1a90dbbbc13a193c3a135 ""
  "/usr/share/texlive/texmf-dist/fonts/tfm/adobe/palatino/pplbi8t.tfm" 1136768653 3788 23f75d701871fed6ba2bf32f67976132 ""
  "/usr/share/texlive/texmf-dist/fonts/tfm/adobe/palatino/pplri8r.tfm" 1136768653 2720 70000d5e623e601132eab3cded5b819b ""
  "/usr/share/texlive/texmf-dist/fonts/tfm/adobe/palatino/pplri8t.tfm" 1136768653 3684 929c666381f7272e81481908b735ccba ""
  "/usr/share/texlive/texmf-dist/fonts/tfm/jknappen/ec/ecbx1000.tfm" 1136768653 3584 2d666ecf6d466d8b007246bc2f94d9da ""
  "/usr/share/texlive/texmf-dist/fonts/tfm/jknappen/ec/ecbx1200.tfm" 1136768653 3584 402da0b29eafbad07963b1224b222f18 ""
  "/usr/share/texlive/texmf-dist/fonts/tfm/jknappen/ec/ecbx1728.tfm" 1136768653 3584 ad49a18d8515beef6d92d4d3f197d0fd ""
  "/usr/share/texlive/texmf-dist/fonts/tfm/jknappen/ec/ecbx2074.tfm" 1136768653 3584 7666d038713b9e38abb5c2e0f6972188 ""
  "/usr/share/texlive/texmf-dist/fonts/tfm/jknappen/ec/ecbx2488.tfm" 1136768653 3584 0181dbc4d429c3ba4e30feba37b5df96 ""
  "/usr/share/texlive/texmf-dist/fonts/tfm/jknappen/ec/ecrm0600.tfm" 1136768653 3584 291a5713401683441e0a8c8f4417b17b ""
  "/usr/share/texlive/texmf-dist/fonts/tfm/jknappen/ec/ecrm0700.tfm" 1136768653 3584 cf973739aac7ab6247f9150296af7954 ""
  "/usr/share/texlive/texmf-dist/fonts/tfm/jknappen/ec/ecrm0800.tfm" 1136768653 3584 49064b465390a8e316a3c8417a050403 ""
  "/usr/share/texlive/texmf-dist/fonts/tfm/jknappen/ec/ecrm1000.tfm" 1136768653 3584 adb004a0c8e7c46ee66cad73671f37b4 ""
  "/usr/share/texlive/texmf-dist/fonts/tfm/jknappen/ec/ecrm1095.tfm" 1136768653 3584 929cdff2b7a8c11bd4d49fd68cb0ae70 ""
  "/usr/share/texlive/texmf-dist/fonts/tfm/jknappen/ec/ecrm1200.tfm" 1136768653 3584 f80ddd985bd00e29e9a6047ebd9d4781 ""
  "/usr/share/texlive/texmf-dist/fonts/tfm/jknappen/ec/ecrm2488.tfm" 1136768653 3584 406ad7b70d9a41f7833f92b6313150c8 ""
  "/usr/share/texlive/texmf-dist/fonts/tfm/jknappen/ec/ecti1200.tfm" 1136768653 3072 8b5a64dc91775463bc95e2d818524028 ""
  "/usr/share/texlive/texmf-dist/fonts/tfm/jknappen/ec/ectt1200.tfm" 1136768653 1536 487c9b46984a816c7ed238d0674595c7 ""
  "/usr/share/texlive/texmf-dist/fonts/tfm/public/amsfonts/cmextra/cmbsy5.tfm" 1246382020 1120 1e8878807317373affa7f7bba4cf2f6a ""
  "/usr/share/texlive/texmf-dist/fonts/tfm/public/amsfonts/cmextra/cmbsy6.tfm" 1246382020 1124 14ccf5552bc7f77ca02a8a402bea8bfb ""
  "/usr/share/texlive/texmf-dist/fonts/tfm/public/amsfonts/cmextra/cmbsy7.tfm" 1246382020 1120 7f9f170e8aa57527ad6c49feafd45d54 ""
  "/usr/share/texlive/texmf-dist/fonts/tfm/public/amsfonts/cmextra/cmbsy8.tfm" 1246382020 1120 200be8b775682cdf80acad4be5ef57e4 ""
  "/usr/share/texlive/texmf-dist/fonts/tfm/public/amsfonts/cmextra/cmex7.tfm" 1246382020 1004 54797486969f23fa377b128694d548df ""
  "/usr/share/texlive/texmf-dist/fonts/tfm/public/amsfonts/cmextra/cmex8.tfm" 1246382020 988 bdf658c3bfc2d96d3c8b02cfc1c94c20 ""
  "/usr/share/texlive/texmf-dist/fonts/tfm/public/amsfonts/cmextra/cmmib5.tfm" 1246382020 1496 c79f6914c6d39ffb3759967363d1be79 ""
  "/usr/share/texlive/texmf-dist/fonts/tfm/public/amsfonts/cmextra/cmmib6.tfm" 1246382020 1516 a3bf6a5e7ec4401b1f52092dfaaed242 ""
  "/usr/share/texlive/texmf-dist/fonts/tfm/public/amsfonts/cmextra/cmmib7.tfm" 1246382020 1508 6e807ff901c35a5f1fde0ca275533df8 ""
  "/usr/share/texlive/texmf-dist/fonts/tfm/public/amsfonts/cmextra/cmmib8.tfm" 1246382020 1528 dab402b9d3774ca98baa037071cee7ae ""
  "/usr/share/texlive/texmf-dist/fonts/tfm/public/cm/cmbsy10.tfm" 1136768653 1116 4e6ba9d7914baa6482fd69f67d126380 ""
  "/usr/share/texlive/texmf-dist/fonts/tfm/public/cm/cmbx10.tfm" 1136768653 1328 c834bbb027764024c09d3d2bf908b5f0 ""
  "/usr/share/texlive/texmf-dist/fonts/tfm/public/cm/cmbx12.tfm" 1136768653 1324 c910af8c371558dc20f2d7822f66fe64 ""
  "/usr/share/texlive/texmf-dist/fonts/tfm/public/cm/cmbx5.tfm" 1136768653 1332 f817c21a1ba54560425663374f1b651a ""
  "/usr/share/texlive/texmf-dist/fonts/tfm/public/cm/cmbx6.tfm" 1136768653 1344 8a0be4fe4d376203000810ad4dc81558 ""
  "/usr/share/texlive/texmf-dist/fonts/tfm/public/cm/cmbx7.tfm" 1136768653 1336 3125ccb448c1a09074e3aa4a9832f130 ""
  "/usr/share/texlive/texmf-dist/fonts/tfm/public/cm/cmbx8.tfm" 1136768653 1332 1fde11373e221473104d6cc5993f046e ""
  "/usr/share/texlive/texmf-dist/fonts/tfm/public/cm/cmex10.tfm" 1136768653 992 662f679a0b3d2d53c1b94050fdaa3f50 ""
  "/usr/share/texlive/texmf-dist/fonts/tfm/public/cm/cmmi12.tfm" 1136768653 1524 4414a8315f39513458b80dfc63bff03a ""
  "/usr/share/texlive/texmf-dist/fonts/tfm/public/cm/cmmi6.tfm" 1136768653 1512 f21f83efb36853c0b70002322c1ab3ad ""
  "/usr/share/texlive/texmf-dist/fonts/tfm/public/cm/cmmi8.tfm" 1136768653 1520 eccf95517727cb11801f4f1aee3a21b4 ""
  "/usr/share/texlive/texmf-dist/fonts/tfm/public/cm/cmmib10.tfm" 1136768653 1524 554068197b70979a55370e6c6495f441 ""
  "/usr/share/texlive/texmf-dist/fonts/tfm/public/cm/cmr12.tfm" 1136768653 1288 655e228510b4c2a1abe905c368440826 ""
  "/usr/share/texlive/texmf-dist/fonts/tfm/public/cm/cmr6.tfm" 1136768653 1300 b62933e007d01cfd073f79b963c01526 ""
  "/usr/share/texlive/texmf-dist/fonts/tfm/public/cm/cmr8.tfm" 1136768653 1292 21c1c5bfeaebccffdb478fd231a0997d ""
  "/usr/share/texlive/texmf-dist/fonts/tfm/public/cm/cmsy10.tfm" 1136768653 1124 6c73e740cf17375f03eec0ee63599741 ""
  "/usr/share/texlive/texmf-dist/fonts/tfm/public/cm/cmsy6.tfm" 1136768653 1116 933a60c408fc0a863a92debe84b2d294 ""
  "/usr/share/texlive/texmf-dist/fonts/tfm/public/cm/cmsy8.tfm" 1136768653 1120 8b7d695260f3cff42e636090a8002094 ""
  "/usr/share/texlive/texmf-dist/fonts/type1/public/amsfonts/cm/cmbx12.pfb" 1248133631 32080 340ef9bf63678554ee606688e7b5339d ""
  "/usr/share/texlive/texmf-dist/fonts/type1/public/amsfonts/cm/cmex10.pfb" 1248133631 30251 6afa5cb1d0204815a708a080681d4674 ""
  "/usr/share/texlive/texmf-dist/fonts/type1/public/amsfonts/cm/cmmi10.pfb" 1248133631 36299 5f9df58c2139e7edcf37c8fca4bd384d ""
  "/usr/share/texlive/texmf-dist/fonts/type1/public/amsfonts/cm/cmmi12.pfb" 1248133631 36741 fa121aac0049305630cf160b86157ee4 ""
  "/usr/share/texlive/texmf-dist/fonts/type1/public/amsfonts/cm/cmmi8.pfb" 1248133631 35469 70d41d2b9ea31d5d813066df7c99281c ""
  "/usr/share/texlive/texmf-dist/fonts/type1/public/amsfonts/cm/cmr10.pfb" 1248133631 35752 024fb6c41858982481f6968b5fc26508 ""
  "/usr/share/texlive/texmf-dist/fonts/type1/public/amsfonts/cm/cmr12.pfb" 1248133631 32722 d7379af29a190c3f453aba36302ff5a9 ""
  "/usr/share/texlive/texmf-dist/fonts/type1/public/amsfonts/cm/cmr8.pfb" 1248133631 32726 0a1aea6fcd6468ee2cf64d891f5c43c8 ""
  "/usr/share/texlive/texmf-dist/fonts/type1/public/amsfonts/cm/cmsy10.pfb" 1248133631 32569 5e5ddc8df908dea60932f3c484a54c0d ""
  "/usr/share/texlive/texmf-dist/fonts/type1/public/amsfonts/cm/cmsy8.pfb" 1248133631 32626 4f5c1b83753b1dd3a97d1b399a005b4b ""
  "/usr/share/texlive/texmf-dist/fonts/type1/public/cm-super/sfbx1000.pfb" 1215737283 145408 43d44302ca7d82d487f511f83e309505 ""
  "/usr/share/texlive/texmf-dist/fonts/type1/public/cm-super/sfbx1200.pfb" 1215737283 140176 d4962f948b4cc0adf4d3dde77a128c95 ""
  "/usr/share/texlive/texmf-dist/fonts/type1/public/cm-super/sfbx2074.pfb" 1215737283 140194 627cc7f36c05b80e25d178974ccb3442 ""
  "/usr/share/texlive/texmf-dist/fonts/type1/public/cm-super/sfbx2488.pfb" 1215737283 135938 299ac3a69892db3b7674a8b2543b0a77 ""
  "/usr/share/texlive/texmf-dist/fonts/type1/public/cm-super/sfrm0700.pfb" 1215737283 154599 ded6d7c21788a8930eadc7fef7518942 ""
  "/usr/share/texlive/texmf-dist/fonts/type1/public/cm-super/sfrm0800.pfb" 1215737283 164227 3df942b4ff2124425d8fb1b6d3e01c7a ""
  "/usr/share/texlive/texmf-dist/fonts/type1/public/cm-super/sfrm1000.pfb" 1215737283 138258 6525c253f16cededa14c7fd0da7f67b2 ""
  "/usr/share/texlive/texmf-dist/fonts/type1/public/cm-super/sfrm1095.pfb" 1215737283 145929 f25e56369a345c4ff583b067cd87ce8e ""
  "/usr/share/texlive/texmf-dist/fonts/type1/public/cm-super/sfrm1200.pfb" 1215737283 136101 f533469f523533d38317ab5729d00c8a ""
  "/usr/share/texlive/texmf-dist/fonts/type1/public/cm-super/sfti1200.pfb" 1215737283 198221 ca5aa71411090ef358a6cc78b7458365 ""
  "/usr/share/texlive/texmf-dist/fonts/type1/public/cm-super/sftt1200.pfb" 1215737283 167085 68de377d2744a68a88fa40a1f610615a ""
  "/usr/share/texlive/texmf-dist/fonts/type1/urw/helvetic/uhvb8a.pfb" 1136849748 35941 f27169cc74234d5bd5e4cca5abafaabb ""
  "/usr/share/texlive/texmf-dist/fonts/type1/urw/helvetic/uhvr8a.pfb" 1136849748 44648 23115b2a545ebfe2c526c3ca99db8b95 ""
  "/usr/share/texlive/texmf-dist/fonts/type1/urw/palatino/uplbi8a.pfb" 1136849748 51285 96e6ac8305d3a03d04d7ee3879e2710e ""
  "/usr/share/texlive/texmf-dist/fonts/type1/urw/palatino/uplri8a.pfb" 1136849748 50022 90249cba7e3e4e9845f80328d6f9bd13 ""
  "/usr/share/texlive/texmf-dist/fonts/vf/adobe/helvetic/phvb7t.vf" 1136768653 1372 1c26b449eb4a1a0bcf6ac7cfe376d450 ""
  "/usr/share/texlive/texmf-dist/fonts/vf/adobe/helvetic/phvr8t.vf" 1136768653 2344 44ff28c9ef2fc97180cd884f900fee71 ""
  "/usr/share/texlive/texmf-dist/fonts/vf/adobe/palatino/pplbi8t.vf" 1136768653 2328 2c4c0c8f8d191e4e9817ad6b330c3cdd ""
  "/usr/share/texlive/texmf-dist/fonts/vf/adobe/palatino/pplri8t.vf" 1136768653 2308 5bc0a90b83a3fd7d37d34ef3b64d7e8a ""
  "/usr/share/texlive/texmf-dist/tex/context/base/mkii/supp-pdf.mkii" 1564758205 71627 94eb9990bed73c364d7f53f960cc8c5b ""
  "/usr/share/texlive/texmf-dist/tex/generic/babel-english/english.ldf" 1496785618 7008 9ff5fdcc865b01beca2b0fe4a46231d4 ""
  "/usr/share/texlive/texmf-dist/tex/generic/babel/babel.def" 1563569208 79581 0b9f5eea41bd7c87924c1917e355c00a ""
  "/usr/share/texlive/texmf-dist/tex/generic/babel/babel.sty" 1563569208 18761 cfada168834cb008aeb57d8ac986fda9 ""
  "/usr/share/texlive/texmf-dist/tex/generic/babel/switch.def" 1563569208 14454 985fb20ebc6d682fca3530579531b663 ""
  "/usr/share/texlive/texmf-dist/tex/generic/babel/txtbabel.def" 1559597743 5178 5b21c28f495420030a8aa1a19d21f35f ""
  "/usr/share/texlive/texmf-dist/tex/generic/iftex/iftex.sty" 1365117071 2560 68a7cdbd7a5424fa22f4176117a417e9 ""
  "/usr/share/texlive/texmf-dist/tex/generic/ifxetex/ifxetex.sty" 1284331290 1458 43ab4710dc82f3edeabecd0d099626b2 ""
  "/usr/share/texlive/texmf-dist/tex/generic/luatex85/luatex85.sty" 1466003200 5870 5c4dd54f0f0c0983167985107b28c800 ""
  "/usr/share/texlive/texmf-dist/tex/generic/oberdiek/catchfile.sty" 1564758237 8493 e586100f117d095256a1a5c630c3fa25 ""
  "/usr/share/texlive/texmf-dist/tex/generic/oberdiek/etexcmds.sty" 1564758237 7612 729a8cc22a1ee0029997c7f74717ae05 ""
  "/usr/share/texlive/texmf-dist/tex/generic/oberdiek/ifluatex.sty" 1463608860 7324 2310d1247db0114eb4726807c8837a0e ""
  "/usr/share/texlive/texmf-dist/tex/generic/oberdiek/ifpdf.sty" 1564758236 1300 96620a7d94bc0ceb261d968770ce8315 ""
  "/usr/share/texlive/texmf-dist/tex/generic/oberdiek/ifvtex.sty" 1564758237 6797 90b7f83b0ad46826bc16058b1e3d48df ""
  "/usr/share/texlive/texmf-dist/tex/generic/oberdiek/infwarerr.sty" 1564758237 8253 473e0e41f9adadb1977e8631b8f72ea6 ""
  "/usr/share/texlive/texmf-dist/tex/generic/oberdiek/ltxcmds.sty" 1564758236 18425 5b3c0c59d76fac78978b5558e83c1f36 ""
  "/usr/share/texlive/texmf-dist/tex/generic/oberdiek/pdftexcmds.sty" 1564758236 20457 0d2e642faacbb41c9d72690f8cc529cd ""
  "/usr/share/texlive/texmf-dist/tex/generic/pgf/math/pgfmath.code.tex" 1557692582 521 c70cf6ad609de83a27ee7929eb356332 ""
  "/usr/share/texlive/texmf-dist/tex/generic/pgf/math/pgfmathcalc.code.tex" 1557692582 13391 933cab19c6d27039dbfc487330d1005a ""
  "/usr/share/texlive/texmf-dist/tex/generic/pgf/math/pgfmathfloat.code.tex" 1557692582 104938 15f2d8bdabd6bf9ca70f62cd8e3d4940 ""
  "/usr/share/texlive/texmf-dist/tex/generic/pgf/math/pgfmathfunctions.base.code.tex" 1557692582 10157 218d58ab074e5bd0d027de45ec64cc00 ""
  "/usr/share/texlive/texmf-dist/tex/generic/pgf/math/pgfmathfunctions.basic.code.tex" 1557692582 28177 7c47c337a1d5dbef1983ad718b752780 ""
  "/usr/share/texlive/texmf-dist/tex/generic/pgf/math/pgfmathfunctions.code.tex" 1562964315 9054 388d21239a1b6df2cc8beaae31c976b0 ""
  "/usr/share/texlive/texmf-dist/tex/generic/pgf/math/pgfmathfunctions.comparison.code.tex" 1557692582 3865 cddf7ddc80f018587c55afdcc79fc333 ""
  "/usr/share/texlive/texmf-dist/tex/generic/pgf/math/pgfmathfunctions.integerarithmetics.code.tex" 1557692582 3177 27d85c44fbfe09ff3b2cf2879e3ea434 ""
  "/usr/share/texlive/texmf-dist/tex/generic/pgf/math/pgfmathfunctions.misc.code.tex" 1557692582 10925 df50b8a6e5660a585e3a2bf55726dcc8 ""
  "/usr/share/texlive/texmf-dist/tex/generic/pgf/math/pgfmathfunctions.random.code.tex" 1562964315 7787 1750fc3f164703caf31fc8ea9218c67e ""
  "/usr/share/texlive/texmf-dist/tex/generic/pgf/math/pgfmathfunctions.round.code.tex" 1557692582 3379 cbd0948a550bd7a495a160ca6beee9ed ""
  "/usr/share/texlive/texmf-dist/tex/generic/pgf/math/pgfmathfunctions.trigonometric.code.tex" 1557692582 92405 bba89470858d7b0788a9c09331c39653 ""
  "/usr/share/texlive/texmf-dist/tex/generic/pgf/math/pgfmathparser.code.tex" 1562964315 36525 1a0afe71ab0664595ccf348e415006df ""
  "/usr/share/texlive/texmf-dist/tex/generic/pgf/math/pgfmathutil.code.tex" 1557692582 7431 af3d75e118d051d25f998b340bda2432 ""
  "/usr/share/texlive/texmf-dist/tex/generic/pgf/utilities/pgffor.code.tex" 1562964315 23777 cb6c8f02f87d86d621f5cb92c44f4998 ""
  "/usr/share/texlive/texmf-dist/tex/generic/pgf/utilities/pgfkeys.code.tex" 1562964315 36451 8396330cd99122375b9c7ec93aabe055 ""
  "/usr/share/texlive/texmf-dist/tex/generic/pgf/utilities/pgfkeysfiltered.code.tex" 1562964315 37439 bd44d50aef702b03193f731207931834 ""
  "/usr/share/texlive/texmf-dist/tex/generic/pgf/utilities/pgfutil-common-lists.tex" 1557692582 7250 03b2b9fb5fa38e7ca5cc3c45860fb210 ""
  "/usr/share/texlive/texmf-dist/tex/generic/pgf/utilities/pgfutil-common.tex" 1562964315 27585 2311d713b44b84f56b9f0b06b703324e ""
  "/usr/share/texlive/texmf-dist/tex/generic/pstricks/pst-fp.tex" 1507158243 23494 021a2534924628b436e298b27663e4a2 ""
  "/usr/share/texlive/texmf-dist/tex/generic/pstricks/pstricks.con" 1507158243 14950 b87088c382dada3ad53ea3dfbd2917d7 ""
  "/usr/share/texlive/texmf-dist/tex/generic/pstricks/pstricks.tex" 1557692234 139163 5edbcfc0d54c4352ab34bd06f12ed9cc ""
  "/usr/share/texlive/texmf-dist/tex/generic/xkeyval/pst-xkey.tex" 1403829539 2369 cef6c7a731680765c6f9543fc756db98 ""
  "/usr/share/texlive/texmf-dist/tex/generic/xkeyval/xkeyval.tex" 1417732693 19231 26434a5656c684f5ffb1f26f98006baa ""
  "/usr/share/texlive/texmf-dist/tex/generic/xkeyval/xkvutils.tex" 1403829539 7677 6f5ce7c1124cad7ec57d05b2562bd8fe ""
  "/usr/share/texlive/texmf-dist/tex/latex/amsmath/amsbsy.sty" 1523134290 2211 ca7ce284ab93c8eecdc6029dc5ccbd73 ""
  "/usr/share/texlive/texmf-dist/tex/latex/amsmath/amsgen.sty" 1523134290 4161 7f6eb9092061a11f87d08ed13515b48d ""
  "/usr/share/texlive/texmf-dist/tex/latex/amsmath/amsmath.sty" 1544567569 85093 77cfa18ddbae4d9b74ade33d843686d3 ""
  "/usr/share/texlive/texmf-dist/tex/latex/amsmath/amsopn.sty" 1523134290 4116 32e6abd27229755a83a8b7f18e583890 ""
  "/usr/share/texlive/texmf-dist/tex/latex/amsmath/amstext.sty" 1523134290 2432 8ff93b1137020e8f21930562a874ae66 ""
  "/usr/share/texlive/texmf-dist/tex/latex/auto-pst-pdf/auto-pst-pdf.sty" 1240965896 6042 f5803a1ddad8087362e5694434162a3b ""
  "/usr/share/texlive/texmf-dist/tex/latex/base/article.cls" 1564758232 19933 3097d1b31d3c45dc957096f554529032 ""
  "/usr/share/texlive/texmf-dist/tex/latex/base/fontenc.sty" 1564758232 4573 e9e01f5b11821a77b916dad378cb86b8 ""
  "/usr/share/texlive/texmf-dist/tex/latex/base/ifthen.sty" 1564758232 5161 c004ea5a189d4bdcf42e86754ad75a58 ""
  "/usr/share/texlive/texmf-dist/tex/latex/base/inputenc.sty" 1564758232 5052 b64c57f4a38aae0d2745f8298fa50814 ""
  "/usr/share/texlive/texmf-dist/tex/latex/base/omscmr.fd" 1564758232 2472 aa08940f0a4dc6c24ae9f943b04ae0b9 ""
  "/usr/share/texlive/texmf-dist/tex/latex/base/size12.clo" 1564758232 8305 6a682ae291edd56e2d7accbf95eca451 ""
  "/usr/share/texlive/texmf-dist/tex/latex/base/t1cmtt.fd" 1564758232 2446 898e9a1961d873c4471b5d9a683366d0 ""
  "/usr/share/texlive/texmf-dist/tex/latex/base/t1enc.def" 1564758232 10689 ce0f2353f9a1f42b29f591f3fe8e040a ""
  "/usr/share/texlive/texmf-dist/tex/latex/environ/environ.sty" 1399239813 4378 f429f0da968c278653359293040a8f52 ""
  "/usr/share/texlive/texmf-dist/tex/latex/fancyhdr/fancyhdr.sty" 1548974385 11128 a53805799bebfed6358fc1658a18e41f ""
  "/usr/share/texlive/texmf-dist/tex/latex/float/float.sty" 1137110151 6749 16d2656a1984957e674b149555f1ea1d ""
  "/usr/share/texlive/texmf-dist/tex/latex/graphics-cfg/color.cfg" 1459978653 1213 620bba36b25224fa9b7e1ccb4ecb76fd ""
  "/usr/share/texlive/texmf-dist/tex/latex/graphics-cfg/graphics.cfg" 1465944070 1224 978390e9c2234eab29404bc21b268d1e ""
  "/usr/share/texlive/texmf-dist/tex/latex/graphics-def/dvips.def" 1498170935 5895 4b59bd0c17e1116fd6b6e7c683dea655 ""
  "/usr/share/texlive/texmf-dist/tex/latex/graphics-def/pdftex.def" 1515537368 17334 520b9b85ad8a2a48eda3f643e27a5179 ""
  "/usr/share/texlive/texmf-dist/tex/latex/graphics/epsfig.sty" 1523134385 3390 371f3edde417b3763d7e25ed5bb647ec ""
  "/usr/share/texlive/texmf-dist/tex/latex/graphics/graphics.sty" 1523134385 15272 5a97061616e0c8b2aa79c6615ff769f4 ""
  "/usr/share/texlive/texmf-dist/tex/latex/graphics/graphicx.sty" 1523134385 9063 d0a305975932762117cd1f06a582f896 ""
  "/usr/share/texlive/texmf-dist/tex/latex/graphics/keyval.sty" 1523134385 2591 6404d0c7d28505fb38ce0d86c2e28ae7 ""
  "/usr/share/texlive/texmf-dist/tex/latex/graphics/trig.sty" 1523134385 3977 cb9221976ed8a183afad65b59aa8629a ""
  "/usr/share/texlive/texmf-dist/tex/latex/ifplatform/ifplatform.sty" 1507930826 3910 e04f6a6d983bdbdb024917b7ccc80262 ""
  "/usr/share/texlive/texmf-dist/tex/latex/preview/preview.sty" 1564010831 13743 8b357d6229f8a3acbb8a1b514d8008ec ""
  "/usr/share/texlive/texmf-dist/tex/latex/psnfss/ot1phv.fd" 1137110629 1684 0ac4554419e828cf2c810306539da167 ""
  "/usr/share/texlive/texmf-dist/tex/latex/psnfss/t1phv.fd" 1137110629 1488 9a55ac1cde6b4798a7f56844bb75a553 ""
  "/usr/share/texlive/texmf-dist/tex/latex/psnfss/t1ppl.fd" 1137110629 774 5747d3f33ec2f7c4881c94e931a130b1 ""
  "/usr/share/texlive/texmf-dist/tex/latex/pst-pdf/pst-pdf.sty" 1564758233 14630 6a6b9e4d0c763bb01812abf8b7e22c87 ""
  "/usr/share/texlive/texmf-dist/tex/latex/pstricks/pstricks.sty" 1557692234 8180 8816e897a21f53527fc20f94d01ecff9 ""
  "/usr/share/texlive/texmf-dist/tex/latex/tools/bm.sty" 1523050425 12626 7d9d99d0bbe65f44cc0bb90f67262000 ""
  "/usr/share/texlive/texmf-dist/tex/latex/tools/shellesc.sty" 1523050425 3268 77605a04b5525f60d58f55c47c0771c5 ""
  "/usr/share/texlive/texmf-dist/tex/latex/trimspaces/trimspaces.sty" 1253232110 1380 971a51b00a14503ddf754cab24c3f209 ""
  "/usr/share/texlive/texmf-dist/tex/latex/was/gensymb.sty" 1137111079 4612 29d19942d7123701aa6a3876b9ba11b1 ""
  "/usr/share/texlive/texmf-dist/tex/latex/xcolor/xcolor.sty" 1463002160 55589 34128738f682d033422ca125f82e5d62 ""
  "/usr/share/texlive/texmf-dist/tex/latex/xkeyval/xkeyval.sty" 1417732693 4962 9c1069474ff71dbc47d5006555e352d3 ""
  "/usr/share/texlive/texmf-dist/web2c/texmf.cnf" 1564755356 35594 9aef19174c178978f61d14961262af5d ""
  "/usr/share/texlive/texmf-var/web2c/pdftex/pdflatex.fmt" 1574253079 847222 a2883abf3ced613b618a884c7ee58381 ""
  "FIGURES/AxeFluide_diph.eps" 1573546100 16931 27ce4259f4117f54041e96e53f6f0ef4 ""
  "FIGURES/AxeFluide_mono.eps" 1573546100 15122 9481021a418ddb017de5d8581f078cd2 ""
  "FIGURES/Histo_Cplt.eps" 1573546101 1169572 263c828e460961e0fe25e673e64ab479 ""
  "FIGURES/Histo_Std.eps" 1573546101 1102112 aafdad5542f790d0ffdc67e27de76e5d ""
  "FIGURES/Histo_mono.eps" 1573546101 921792 56ec3d0bdffbcdb1f2d14c88b24f6c25 ""
  "FIGURES/ProfVZFluide_diph.eps" 1573546101 48659 762562b478e0a059d0cfce6c297b45a2 ""
  "FIGURES/ProfVZFluide_mono.eps" 1573546101 40381 120c0190e71aba803b620a1231ff7bf4 ""
  "FIGURES/VitXPart.eps" 1573546101 44219 c7a4146dfc1e9fe334933a8395f12252 ""
  "FIGURES/VitXpPart.eps" 1573546101 43232 b08d9e1e045ab6ff8571c66b8d815d45 ""
  "FIGURES/VitZPart.eps" 1573546101 43275 724982c9cf3fd6b3981ca05cdc95670f ""
  "FIGURES/VitZpPart.eps" 1573546101 48933 9c3ca5b1adcd551cb807d810de064dd1 ""
  "FIGURES/couleur.eps" 1573546101 649280 618c9de39a526f5680a87dea869405e2 ""
  "FIGURES/ecoulement.eps" 1573546101 25491 d0d44541b641015cc4ef23112a95dc52 ""
  "FIGURES/maillage.eps" 1573546101 1630264 20c7ad226cf8da175635c31c5130ec9b ""
  "FIGURES/nbpart.eps" 1573546101 91344 4ce82671d55812c904b88a1039762024 ""
  "FIGURES/pospoints.eps" 1573546101 304772 c06ca84a45f9b09c2b92dd80f642e995 ""
  "FIGURES/schema.ps" 1574164363 5759 2e68f739fa5ed3f095dc28a510fcad96 ""
  "hercule-pics.pdf" 0 -1 0 ""
  "hercule.aux" 0 -1 0 "pdflatex"
  "hercule.tex" 1574266258 43258 6c81f7d3f129a11944bd2a71e511a43d ""
  "hercule.toc" 0 -1 0 "pdflatex"
  "valsat.sty" 1574262468 5248 51757f7381307726de43e2fc31faaca5 ""
  (generated)
  "hercule.log"
  "/home/panos/Runs/Code_Saturne/HERCULE/HERCULE-6.0.0/DOCS/hercule.pdf"
  "hercule.toc"
  "hercule.aux"
  "hercule.pdf"
  "/home/panos/Runs/Code_Saturne/HERCULE/HERCULE-6.0.0/DOCS/hercule.log"
