
/home/yohann-ws2/Code_Saturne/6.0-beta_211119/code_saturne-6.0.0-patch/arch/Linux_x86_64/libexec/code_saturne/cs_preprocess 
--log --out mesh_input 
/home/yohann-ws2/Documents/EDF/ETUDE_2019/HERCULE/Work/HERCULE/HERCULE-6.0.0-CALC/MESH/Hercule.med 

  .------------------------------.
  |                              |
  |   Code_Saturne Preprocessor  |
  |                              |
  `------------------------------'

  code_saturne version 6.0.0-patch   (built jeu. 21 nov. 2019 12:13:09 CET)

  CGNS 3.3.0 file format support
  MED 3.3.1 (HDF5 1.8.14) file format support
  Reading of compressed files ('.gz') with Zlib 1.2.11



Case configuration
------------------

  Date                : lun. 09 déc. 2019 14:39:30 CET
  System              : Linux 4.15.0-72-generic
  Machine             : Renuda-FR
  Processor           : Intel(R) Xeon(R) CPU E5-2620 0 @ 2.00GHz
  Memory              : 131994508
  User                : yohann-ws2 (yohann eude)
  Directory           : /home/yohann-ws2/Documents/EDF/ETUDE_2019/HERCULE/Work/HERCULE/HERCULE-6.0.0-CALC/HERCULE-MONO/RESU/20191209-1439

  Case name           : preprocess
  Mesh file           : /home/yohann-ws2/Documents/EDF/ETUDE_2019/HERCULE/Work/HERCULE/HERCULE-6.0.0-CALC/MESH/Hercule.med



Reading mesh from file in MED (EDF/CEA) format
----------------------
  Mesh file: /home/yohann-ws2/Documents/EDF/ETUDE_2019/HERCULE/Work/HERCULE/HERCULE-6.0.0-CALC/MESH/Hercule.med


  Mesh name: Hercule

  Number of vertices                          :    17595
  Number of faces                             :    17594
                                   Family 6   :       38
                                   Family 7   :       33
                                   Family 8   :        5
                                   Family 9   :      114
                                   Family 10  :     8664
                                   Family 11  :     8664
                                   Family 12  :       76
  Number of cells                             :     8664
                                   Family 13  :     8664

  Wall-clock time: 0.022677 s; CPU time: 0.022665 s


Done reading mesh
-----------------
  Theoretical mesh size:                 1.465 Mb
  Theoretical current memory:            1.867 Mb
  Theoretical peak memory:               2.808 Mb
  Total memory used:                    47.191 Mb

  Domain coordinate extents:

  [ 0.00000e+00, -6.54291e-03,  0.00000e+00]
  [ 1.49857e-01,  6.54291e-03,  1.50000e+00]
  Number of elements                    tria3 :        2
  Number of elements                    quad4 :    17592
  Number of elements                   penta6 :      114
  Number of elements                    hexa8 :     8550



Defining families
-----------------


  Element orientation check.


End of conversion to descending connectivity
--------------------------------------------
  Theoretical mesh size:                 1.952 Mb
  Theoretical current memory:            2.354 Mb
  Theoretical peak memory:               5.337 Mb
  Total memory used:                    50.148 Mb


Main mesh properties
--------------------

  Number of cells:                                  8664
  Number of internal faces:                        17138
  Number of boundary faces:                        17594
  Number of vertices:                              17595


Definition of face and cell families
------------------------------------

  Family 1
         Group "Fluid"
  Number of cells          :     8664
  Family 2
         Group "Injection"
  Number of boundary faces :        5
  Family 3
         Group "Inlet"
  Number of boundary faces :       38
  Family 4
         Group "Outlet"
  Number of boundary faces :       76
  Family 5
         Group "Symmetry-1"
  Number of boundary faces :     8664
  Family 6
         Group "Symmetry-2"
  Number of boundary faces :     8664
  Family 7
         Group "Wall-1"
  Number of boundary faces :      114
  Family 8
         Group "Wall-2"
  Number of boundary faces :       33
  Family 8
         Default family
         (no group)
  Number of internal faces :    17138


Write output for Kernel
-----------------------

  Opening file: mesh_input

  Wrote: "start_block:dimensions"
  Wrote: "n_cells"                         ; Type: "u8"; Size: 1
  Wrote: "n_faces"                         ; Type: "u8"; Size: 1
  Wrote: "n_vertices"                      ; Type: "u8"; Size: 1
  Wrote: "face_vertices_size"              ; Type: "u8"; Size: 1
  Wrote: "n_group_classes"                 ; Type: "i8"; Size: 1
  Wrote: "n_group_class_props_max"         ; Type: "i8"; Size: 1
  Wrote: "n_groups"                        ; Type: "u8"; Size: 1
  Wrote: "group_name_index"                ; Type: "i8"; Size: 9
  Wrote: "group_name"                      ; Type: "c "; Size: 65
  Wrote: "group_class_properties"          ; Type: "i8"; Size: 9
  Wrote: "end_block:dimensions"
  Wrote: "start_block:data"
  Wrote: "face_cells"                      ; Type: "i8"; Size: 69464
  Wrote: "cell_group_class_id"             ; Type: "i8"; Size: 8664
  Wrote: "face_group_class_id"             ; Type: "i8"; Size: 34732
  Wrote: "face_vertices_index"             ; Type: "u8"; Size: 34733
  Wrote: "face_vertices"                   ; Type: "i8"; Size: 138813
  Wrote: "vertex_coords"                   ; Type: "r8"; Size: 52785
  Wrote: "end_block:data"
  Wrote: "EOF"

  Closing file: mesh_input


Time and memory summary
-----------------------

  User CPU time                       (sec)   :        0.05
  System CPU time                     (sec)   :        0.01
  Total time                          (sec)   :        0.05
  Total CPU time / Total time                 :        1.23

Memory use summary:

  Total memory used:                                  50.148 Mb
  Theoretical instrumented dynamic memory:             5.337 Mb


  .-----------------------.
  |                       |
  |  Preprocessor finish  |
  |                       |
  `-----------------------'


