<?xml version="1.0" encoding="UTF-8"?>
<ui version="4.0">
 <class>AnalysisFeaturesForm</class>
 <widget class="QWidget" name="AnalysisFeaturesForm">
  <property name="geometry">
   <rect>
    <x>0</x>
    <y>0</y>
    <width>458</width>
    <height>610</height>
   </rect>
  </property>
  <property name="windowTitle">
   <string>Form</string>
  </property>
  <layout class="QGridLayout" name="gridLayout_3">
   <item row="0" column="0">
    <widget class="QGroupBox" name="groupBoxMultiphase">
     <property name="toolTip">
      <string>&lt;html&gt;&lt;head/&gt;&lt;body&gt;&lt;p&gt;&lt;span style=&quot; font-size:9pt;&quot;&gt;Enable the particle-tracking module (particle and droplets tracking).&lt;/span&gt;&lt;/p&gt;&lt;p&gt;&lt;span style=&quot; font-size:9pt;&quot;&gt;(Code_Saturne key word: &lt;/span&gt;&lt;span style=&quot; font-size:9pt; font-weight:600;&quot;&gt;IILAGR&lt;/span&gt;&lt;span style=&quot; font-size:9pt;&quot;&gt;)&lt;/span&gt;&lt;/p&gt;&lt;/body&gt;&lt;/html&gt;</string>
     </property>
     <property name="statusTip">
      <string>Select the flow treatment</string>
     </property>
     <property name="title">
      <string>Eulerian-Lagrangian multi-phase treatment</string>
     </property>
     <layout class="QGridLayout">
      <item row="0" column="0">
       <layout class="QHBoxLayout">
        <item>
         <spacer>
          <property name="orientation">
           <enum>Qt::Horizontal</enum>
          </property>
          <property name="sizeHint" stdset="0">
           <size>
            <width>16</width>
            <height>22</height>
           </size>
          </property>
         </spacer>
        </item>
        <item>
         <widget class="QComboBox" name="comboBoxLagrangian">
          <property name="minimumSize">
           <size>
            <width>400</width>
            <height>0</height>
           </size>
          </property>
          <property name="toolTip">
           <string>&lt;html&gt;&lt;head/&gt;&lt;body&gt;&lt;p&gt;Enable the particle-tracking module (particle and droplets tracking):&lt;/p&gt;&lt;p&gt;- One-way coupling: no influence of the particles on the continuous phase,&lt;br/&gt;- Two-way coupling: influence of the particles on the dynamics of the continuous phase. Dynamics, temperature and mass may be coupled independently.&lt;br/&gt;- Frozen carrier flow: all the Eulerian fields are frozen (including the scalar fields); this option can only be used in case of a calculation restart.&lt;/p&gt;&lt;/body&gt;&lt;/html&gt;</string>
          </property>
          <property name="statusTip">
           <string>Select the flow treatment</string>
          </property>
         </widget>
        </item>
        <item>
         <spacer>
          <property name="orientation">
           <enum>Qt::Horizontal</enum>
          </property>
          <property name="sizeHint" stdset="0">
           <size>
            <width>16</width>
            <height>22</height>
           </size>
          </property>
         </spacer>
        </item>
       </layout>
      </item>
     </layout>
    </widget>
   </item>
   <item row="1" column="0">
    <widget class="QGroupBox" name="Atmosphericflows">
     <property name="toolTip">
      <string>&lt;html&gt;&lt;head/&gt;&lt;body&gt;&lt;p&gt;&lt;span style=&quot; font-size:9pt;&quot;&gt;Enable the atmospheric flow module. Three models are available:&lt;/span&gt;&lt;/p&gt;&lt;p&gt;&lt;span style=&quot; font-size:9pt;&quot;&gt;- constant density: to simulate neutral atmosphere,&lt;/span&gt;&lt;/p&gt;&lt;p&gt;&lt;span style=&quot; font-size:9pt;&quot;&gt;- dry atmosphere: to simulate dry, thermally-stratified atmospheric flows (enables &lt;/span&gt;&lt;span style=&quot; font-size:9pt; font-weight:600;&quot;&gt;Potential temperature&lt;/span&gt;&lt;span style=&quot; font-size:9pt;&quot;&gt; as thermal model),&lt;/span&gt;&lt;/p&gt;&lt;p&gt;&lt;span style=&quot; font-size:9pt;&quot;&gt;- humid atmosphere: to simulate thermally stratified atmospheric flows (air-water mixture) with phase changes (enables Liquid potential temperature as thermal model).&lt;/span&gt;&lt;/p&gt;&lt;p&gt;&lt;span style=&quot; font-size:9pt;&quot;&gt;(Code_Saturne key word: &lt;/span&gt;&lt;span style=&quot; font-size:9pt; font-weight:600;&quot;&gt;IATMOS&lt;/span&gt;&lt;span style=&quot; font-size:9pt;&quot;&gt;)&lt;/span&gt;&lt;/p&gt;&lt;/body&gt;&lt;/html&gt;</string>
     </property>
     <property name="statusTip">
      <string>Select the atmospheric modelling</string>
     </property>
     <property name="title">
      <string>Atmospheric flows</string>
     </property>
     <layout class="QHBoxLayout" name="horizontalLayout_4">
      <item>
       <layout class="QHBoxLayout" name="horizontalLayout_3">
        <item>
         <spacer name="horizontalSpacer">
          <property name="orientation">
           <enum>Qt::Horizontal</enum>
          </property>
          <property name="sizeHint" stdset="0">
           <size>
            <width>16</width>
            <height>22</height>
           </size>
          </property>
         </spacer>
        </item>
        <item>
         <widget class="QComboBox" name="comboBoxAtmospheric">
          <property name="minimumSize">
           <size>
            <width>400</width>
            <height>0</height>
           </size>
          </property>
          <property name="toolTip">
           <string>&lt;html&gt;&lt;head/&gt;&lt;body&gt;&lt;p&gt;&lt;span style=&quot; font-size:9pt;&quot;&gt;Enable the atmospheric flow module. Three models are available:&lt;/span&gt;&lt;/p&gt;&lt;p&gt;&lt;span style=&quot; font-size:9pt;&quot;&gt;- constant density: to simulate neutral atmosphere,&lt;/span&gt;&lt;/p&gt;&lt;p&gt;&lt;span style=&quot; font-size:9pt;&quot;&gt;- dry atmosphere: to simulate dry, thermally-stratified atmospheric flows (enables &lt;/span&gt;&lt;span style=&quot; font-size:9pt; font-weight:600;&quot;&gt;Potential temperature&lt;/span&gt;&lt;span style=&quot; font-size:9pt;&quot;&gt; as thermal model),&lt;/span&gt;&lt;/p&gt;&lt;p&gt;&lt;span style=&quot; font-size:9pt;&quot;&gt;- humid atmosphere: to simulate thermally stratified atmospheric flows (air-water mixture) with phase changes (enables Liquid potential temperature as thermal model).&lt;/span&gt;&lt;/p&gt;&lt;p&gt;&lt;span style=&quot; font-size:9pt;&quot;&gt;(Code_Saturne key word: &lt;/span&gt;&lt;span style=&quot; font-size:9pt; font-weight:600;&quot;&gt;IATMOS&lt;/span&gt;&lt;span style=&quot; font-size:9pt;&quot;&gt;)&lt;/span&gt;&lt;/p&gt;&lt;/body&gt;&lt;/html&gt;</string>
          </property>
          <property name="statusTip">
           <string>Select the atmospheric modelling</string>
          </property>
         </widget>
        </item>
        <item>
         <spacer name="horizontalSpacer_2">
          <property name="orientation">
           <enum>Qt::Horizontal</enum>
          </property>
          <property name="sizeHint" stdset="0">
           <size>
            <width>16</width>
            <height>22</height>
           </size>
          </property>
         </spacer>
        </item>
       </layout>
      </item>
     </layout>
    </widget>
   </item>
   <item row="2" column="0">
    <widget class="QGroupBox" name="groupBoxGasCombustion">
     <property name="toolTip">
      <string>&lt;html&gt;&lt;head/&gt;&lt;body&gt;&lt;p&gt;&lt;span style=&quot; font-size:9pt;&quot;&gt;Enable the gas combustion module.&lt;/span&gt;&lt;/p&gt;&lt;p&gt;&lt;span style=&quot; font-size:9pt;&quot;&gt;(Code_Saturne key word: &lt;/span&gt;&lt;span style=&quot; font-size:9pt; font-weight:600;&quot;&gt;IPPMOD&lt;/span&gt;&lt;span style=&quot; font-size:9pt;&quot;&gt;)&lt;/span&gt;&lt;/p&gt;&lt;/body&gt;&lt;/html&gt;</string>
     </property>
     <property name="statusTip">
      <string>Select the combustion modelling</string>
     </property>
     <property name="title">
      <string>Gas combustion</string>
     </property>
     <layout class="QGridLayout">
      <item row="0" column="0">
       <layout class="QHBoxLayout">
        <item>
         <spacer>
          <property name="orientation">
           <enum>Qt::Horizontal</enum>
          </property>
          <property name="sizeHint" stdset="0">
           <size>
            <width>16</width>
            <height>22</height>
           </size>
          </property>
         </spacer>
        </item>
        <item>
         <widget class="QComboBox" name="comboBoxGasCombustionModel">
          <property name="minimumSize">
           <size>
            <width>400</width>
            <height>0</height>
           </size>
          </property>
          <property name="toolTip">
           <string>&lt;html&gt;&lt;head/&gt;&lt;body&gt;&lt;p&gt;&lt;span style=&quot; font-size:9pt;&quot;&gt;Enable the gas combustion module.&lt;/span&gt;&lt;/p&gt;&lt;p&gt;&lt;span style=&quot; font-size:9pt;&quot;&gt;(Code_Saturne key word: &lt;/span&gt;&lt;span style=&quot; font-size:9pt; font-weight:600;&quot;&gt;IPPMOD&lt;/span&gt;&lt;span style=&quot; font-size:9pt;&quot;&gt;)&lt;/span&gt;&lt;/p&gt;&lt;/body&gt;&lt;/html&gt;</string>
          </property>
          <property name="statusTip">
           <string>Select the combustion modelling</string>
          </property>
         </widget>
        </item>
        <item>
         <spacer>
          <property name="orientation">
           <enum>Qt::Horizontal</enum>
          </property>
          <property name="sizeHint" stdset="0">
           <size>
            <width>16</width>
            <height>22</height>
           </size>
          </property>
         </spacer>
        </item>
       </layout>
      </item>
     </layout>
    </widget>
   </item>
   <item row="3" column="0">
    <widget class="QGroupBox" name="groupBoxCoalCombustion">
     <property name="toolTip">
      <string>&lt;html&gt;&lt;head/&gt;&lt;body&gt;&lt;p&gt;&lt;span style=&quot; font-size:9pt;&quot;&gt;Enable the pulverized fuel combustion.&lt;/span&gt;&lt;/p&gt;&lt;p&gt;&lt;span style=&quot; font-size:9pt;&quot;&gt;(Code_Saturne key word: &lt;/span&gt;&lt;span style=&quot; font-size:9pt; font-weight:600;&quot;&gt;IPPMOD&lt;/span&gt;&lt;span style=&quot; font-size:9pt;&quot;&gt;)&lt;/span&gt;&lt;/p&gt;&lt;/body&gt;&lt;/html&gt;</string>
     </property>
     <property name="statusTip">
      <string>Select the combustion modelling</string>
     </property>
     <property name="title">
      <string>Pulverized fuel combustion</string>
     </property>
     <layout class="QGridLayout">
      <item row="0" column="0">
       <layout class="QHBoxLayout">
        <item>
         <spacer>
          <property name="orientation">
           <enum>Qt::Horizontal</enum>
          </property>
          <property name="sizeHint" stdset="0">
           <size>
            <width>16</width>
            <height>22</height>
           </size>
          </property>
         </spacer>
        </item>
        <item>
         <widget class="QComboBox" name="comboBoxPulverizedCoal">
          <property name="minimumSize">
           <size>
            <width>400</width>
            <height>0</height>
           </size>
          </property>
          <property name="toolTip">
           <string>&lt;html&gt;&lt;head/&gt;&lt;body&gt;&lt;p&gt;&lt;span style=&quot; font-size:9pt;&quot;&gt;Enable the pulverized fuel combustion.&lt;/span&gt;&lt;/p&gt;&lt;p&gt;&lt;span style=&quot; font-size:9pt;&quot;&gt;(Code_Saturne key word: &lt;/span&gt;&lt;span style=&quot; font-size:9pt; font-weight:600;&quot;&gt;IPPMOD&lt;/span&gt;&lt;span style=&quot; font-size:9pt;&quot;&gt;)&lt;/span&gt;&lt;/p&gt;&lt;/body&gt;&lt;/html&gt;</string>
          </property>
          <property name="statusTip">
           <string>Select the combustion modelling</string>
          </property>
         </widget>
        </item>
        <item>
         <spacer>
          <property name="orientation">
           <enum>Qt::Horizontal</enum>
          </property>
          <property name="sizeHint" stdset="0">
           <size>
            <width>16</width>
            <height>22</height>
           </size>
          </property>
         </spacer>
        </item>
       </layout>
      </item>
     </layout>
    </widget>
   </item>
   <item row="4" column="0">
    <widget class="QGroupBox" name="groupBoxElectricalModels">
     <property name="toolTip">
      <string>&lt;html&gt;&lt;head/&gt;&lt;body&gt;&lt;p&gt;&lt;span style=&quot; font-size:9pt;&quot;&gt;Enable the magnetohydrodynamic module which allows to solve the system of equations composed of Navier-equations equations, the energy balance and Maxwell equations. Joule effect and Laplace Forces can be taken into account (for electric arcs simulation) or only Joule effect.&lt;/span&gt;&lt;/p&gt;&lt;p&gt;&lt;span style=&quot; font-size:9pt;&quot;&gt;(Code_Saturne key word: &lt;/span&gt;&lt;span style=&quot; font-size:9pt; font-weight:600;&quot;&gt;IELARC&lt;/span&gt;&lt;span style=&quot; font-size:9pt;&quot;&gt;)&lt;/span&gt;&lt;/p&gt;&lt;/body&gt;&lt;/html&gt;</string>
     </property>
     <property name="statusTip">
      <string>Select the electrical model</string>
     </property>
     <property name="title">
      <string>Electric model</string>
     </property>
     <layout class="QGridLayout">
      <item row="0" column="0">
       <layout class="QHBoxLayout">
        <item>
         <spacer>
          <property name="orientation">
           <enum>Qt::Horizontal</enum>
          </property>
          <property name="sizeHint" stdset="0">
           <size>
            <width>16</width>
            <height>22</height>
           </size>
          </property>
         </spacer>
        </item>
        <item>
         <widget class="QComboBox" name="comboBoxJouleEffect">
          <property name="minimumSize">
           <size>
            <width>400</width>
            <height>0</height>
           </size>
          </property>
          <property name="toolTip">
           <string>&lt;html&gt;&lt;head/&gt;&lt;body&gt;&lt;p&gt;&lt;span style=&quot; font-size:9pt;&quot;&gt;Enable the magnetohydrodynamic module which allows to solve the system of equations composed of Navier-equations equations, the energy balance and Maxwell equations. Joule effect and Laplace Forces can be taken into account (for electric arcs simulation) or only Joule effect.&lt;/span&gt;&lt;/p&gt;&lt;p&gt;&lt;span style=&quot; font-size:9pt;&quot;&gt;(Code_Saturne key word: &lt;/span&gt;&lt;span style=&quot; font-size:9pt; font-weight:600;&quot;&gt;IELARC&lt;/span&gt;&lt;span style=&quot; font-size:9pt;&quot;&gt;)&lt;/span&gt;&lt;/p&gt;&lt;/body&gt;&lt;/html&gt;</string>
          </property>
          <property name="statusTip">
           <string>Select the electrical model</string>
          </property>
         </widget>
        </item>
        <item>
         <spacer>
          <property name="orientation">
           <enum>Qt::Horizontal</enum>
          </property>
          <property name="sizeHint" stdset="0">
           <size>
            <width>16</width>
            <height>22</height>
           </size>
          </property>
         </spacer>
        </item>
       </layout>
      </item>
     </layout>
    </widget>
   </item>
   <item row="5" column="0">
    <widget class="QGroupBox" name="groupBoxCompressible">
     <property name="toolTip">
      <string>&lt;html&gt;&lt;head/&gt;&lt;body&gt;&lt;p&gt;&lt;span style=&quot; font-size:9pt;&quot;&gt;Enable the compressible module.&lt;/span&gt;&lt;/p&gt;&lt;p&gt;&lt;span style=&quot; font-size:9pt;&quot;&gt;(Code_Saturne key word: &lt;/span&gt;&lt;span style=&quot; font-size:9pt; font-weight:600;&quot;&gt;ICOMPF&lt;/span&gt;&lt;span style=&quot; font-size:9pt;&quot;&gt;)&lt;/span&gt;&lt;/p&gt;&lt;/body&gt;&lt;/html&gt;</string>
     </property>
     <property name="statusTip">
      <string>Select the compressible modelling</string>
     </property>
     <property name="title">
      <string>Compressible model</string>
     </property>
     <layout class="QGridLayout" name="gridLayout">
      <item row="0" column="0">
       <layout class="QHBoxLayout" name="horizontalLayout">
        <item>
         <spacer>
          <property name="orientation">
           <enum>Qt::Horizontal</enum>
          </property>
          <property name="sizeHint" stdset="0">
           <size>
            <width>16</width>
            <height>22</height>
           </size>
          </property>
         </spacer>
        </item>
        <item>
         <widget class="QComboBox" name="comboBoxCompressible">
          <property name="minimumSize">
           <size>
            <width>400</width>
            <height>0</height>
           </size>
          </property>
          <property name="sizeIncrement">
           <size>
            <width>0</width>
            <height>0</height>
           </size>
          </property>
          <property name="toolTip">
           <string>&lt;html&gt;&lt;head/&gt;&lt;body&gt;&lt;p&gt;&lt;span style=&quot; font-size:9pt;&quot;&gt;Enable the compressible module.&lt;/span&gt;&lt;/p&gt;&lt;p&gt;&lt;span style=&quot; font-size:9pt;&quot;&gt;(Code_Saturne key word: &lt;/span&gt;&lt;span style=&quot; font-size:9pt; font-weight:600;&quot;&gt;ICOMPF&lt;/span&gt;&lt;span style=&quot; font-size:9pt;&quot;&gt;)&lt;/span&gt;&lt;/p&gt;&lt;/body&gt;&lt;/html&gt;</string>
          </property>
          <property name="statusTip">
           <string>Select the compressible modelling</string>
          </property>
         </widget>
        </item>
        <item>
         <spacer>
          <property name="orientation">
           <enum>Qt::Horizontal</enum>
          </property>
          <property name="sizeHint" stdset="0">
           <size>
            <width>17</width>
            <height>22</height>
           </size>
          </property>
         </spacer>
        </item>
       </layout>
      </item>
     </layout>
    </widget>
   </item>
   <item row="6" column="0">
    <widget class="QGroupBox" name="groupBoxGroundwater">
     <property name="toolTip">
      <string>&lt;html&gt;&lt;head/&gt;&lt;body&gt;&lt;p&gt;&lt;span style=&quot; font-size:9pt;&quot;&gt;Enable the groundwater module. Richards equation (Darcy law injected inside the continuity equation) is then solved instead of Navier-Stokes equations. Transport equations of species can be additionaly solved using the computed mass flux as convecting field. Ground properties can be specified by zone in the Volume conditions menu.&lt;/span&gt;&lt;/p&gt;&lt;p&gt;&lt;span style=&quot; font-size:9pt;&quot;&gt;(Code_Saturne key word: &lt;/span&gt;&lt;span style=&quot; font-size:9pt; font-weight:600;&quot;&gt;IDARCY&lt;/span&gt;&lt;span style=&quot; font-size:9pt;&quot;&gt;)&lt;/span&gt;&lt;/p&gt;&lt;/body&gt;&lt;/html&gt;</string>
     </property>
     <property name="statusTip">
      <string>Select the groundwater modelling</string>
     </property>
     <property name="title">
      <string>Groundwater flows</string>
     </property>
     <layout class="QGridLayout" name="gridLayout_2">
      <item row="0" column="0">
       <layout class="QHBoxLayout" name="horizontalLayout_2">
        <item>
         <spacer>
          <property name="orientation">
           <enum>Qt::Horizontal</enum>
          </property>
          <property name="sizeHint" stdset="0">
           <size>
            <width>16</width>
            <height>22</height>
           </size>
          </property>
         </spacer>
        </item>
        <item>
         <widget class="QComboBox" name="comboBoxGroundwater">
          <property name="minimumSize">
           <size>
            <width>400</width>
            <height>0</height>
           </size>
          </property>
          <property name="sizeIncrement">
           <size>
            <width>0</width>
            <height>0</height>
           </size>
          </property>
          <property name="toolTip">
           <string>&lt;html&gt;&lt;head/&gt;&lt;body&gt;&lt;p&gt;&lt;span style=&quot; font-size:9pt;&quot;&gt;Enable the groundwater module. Richards equation (Darcy law injected inside the continuity equation) is then solved instead of Navier-Stokes equations. Transport equations of species can be additionaly solved using the computed mass flux as convecting field. Ground properties can be specified by zone in the Volume conditions menu.&lt;/span&gt;&lt;/p&gt;&lt;p&gt;&lt;span style=&quot; font-size:9pt;&quot;&gt;(Code_Saturne key word: &lt;/span&gt;&lt;span style=&quot; font-size:9pt; font-weight:600;&quot;&gt;IDARCY&lt;/span&gt;&lt;span style=&quot; font-size:9pt;&quot;&gt;)&lt;/span&gt;&lt;/p&gt;&lt;/body&gt;&lt;/html&gt;</string>
          </property>
          <property name="statusTip">
           <string>Select the groundwater modelling</string>
          </property>
         </widget>
        </item>
        <item>
         <spacer>
          <property name="orientation">
           <enum>Qt::Horizontal</enum>
          </property>
          <property name="sizeHint" stdset="0">
           <size>
            <width>17</width>
            <height>22</height>
           </size>
          </property>
         </spacer>
        </item>
       </layout>
      </item>
     </layout>
    </widget>
   </item>
   <item row="7" column="0">
    <spacer>
     <property name="orientation">
      <enum>Qt::Vertical</enum>
     </property>
     <property name="sizeHint" stdset="0">
      <size>
       <width>20</width>
       <height>16</height>
      </size>
     </property>
    </spacer>
   </item>
  </layout>
 </widget>
 <resources/>
 <connections/>
</ui>
