<?xml version="1.0" encoding="UTF-8"?>
<ui version="4.0">
 <class>BodyForcesForm</class>
 <widget class="QWidget" name="BodyForcesForm">
  <property name="geometry">
   <rect>
    <x>0</x>
    <y>0</y>
    <width>235</width>
    <height>290</height>
   </rect>
  </property>
  <property name="minimumSize">
   <size>
    <width>0</width>
    <height>0</height>
   </size>
  </property>
  <property name="windowTitle">
   <string>Form</string>
  </property>
  <property name="layoutDirection">
   <enum>Qt::LeftToRight</enum>
  </property>
  <property name="autoFillBackground">
   <bool>false</bool>
  </property>
  <layout class="QGridLayout">
   <item row="2" column="0">
    <spacer>
     <property name="orientation">
      <enum>Qt::Vertical</enum>
     </property>
     <property name="sizeHint" stdset="0">
      <size>
       <width>21</width>
       <height>16</height>
      </size>
     </property>
    </spacer>
   </item>
   <item row="0" column="0">
    <widget class="QGroupBox" name="groupBox">
     <property name="sizePolicy">
      <sizepolicy hsizetype="Preferred" vsizetype="Preferred">
       <horstretch>0</horstretch>
       <verstretch>0</verstretch>
      </sizepolicy>
     </property>
     <property name="font">
      <font>
       <weight>50</weight>
       <italic>false</italic>
       <bold>false</bold>
      </font>
     </property>
     <property name="toolTip">
      <string>&lt;html&gt;&lt;head/&gt;&lt;body&gt;&lt;p&gt;&lt;span style=&quot; font-size:9pt;&quot;&gt;Define the gravity vector.&lt;/span&gt;&lt;/p&gt;&lt;p&gt;&lt;span style=&quot; font-size:9pt;&quot;&gt;(Code_Saturne key words: &lt;/span&gt;&lt;span style=&quot; font-size:9pt; font-weight:600;&quot;&gt;GX&lt;/span&gt;&lt;span style=&quot; font-size:9pt;&quot;&gt;, &lt;/span&gt;&lt;span style=&quot; font-size:9pt; font-weight:600;&quot;&gt;GY&lt;/span&gt;&lt;span style=&quot; font-size:9pt;&quot;&gt; and &lt;/span&gt;&lt;span style=&quot; font-size:9pt; font-weight:600;&quot;&gt;GZ&lt;/span&gt;&lt;span style=&quot; font-size:9pt;&quot;&gt;)&lt;/span&gt;&lt;/p&gt;&lt;/body&gt;&lt;/html&gt;</string>
     </property>
     <property name="title">
      <string>Gravity</string>
     </property>
     <layout class="QGridLayout">
      <item row="1" column="2">
       <widget class="QLineEdit" name="lineEditX">
        <property name="toolTip">
         <string>&lt;html&gt;&lt;head/&gt;&lt;body&gt;&lt;p&gt;&lt;span style=&quot; font-size:9pt;&quot;&gt;Define the &lt;/span&gt;&lt;span style=&quot; font-size:9pt; font-weight:600;&quot;&gt;X&lt;/span&gt;&lt;span style=&quot; font-size:9pt;&quot;&gt; component of the gravity.&lt;/span&gt;&lt;/p&gt;&lt;p&gt;&lt;span style=&quot; font-size:9pt;&quot;&gt;(Code_Saturne key word: &lt;/span&gt;&lt;span style=&quot; font-size:9pt; font-weight:600;&quot;&gt;GX&lt;/span&gt;&lt;span style=&quot; font-size:9pt;&quot;&gt;)&lt;/span&gt;&lt;/p&gt;&lt;/body&gt;&lt;/html&gt;</string>
        </property>
       </widget>
      </item>
      <item row="1" column="0">
       <spacer>
        <property name="orientation">
         <enum>Qt::Horizontal</enum>
        </property>
        <property name="sizeHint" stdset="0">
         <size>
          <width>40</width>
          <height>22</height>
         </size>
        </property>
       </spacer>
      </item>
      <item row="3" column="1">
       <widget class="QLabel" name="labelZ">
        <property name="font">
         <font>
          <weight>50</weight>
          <italic>false</italic>
          <bold>false</bold>
         </font>
        </property>
        <property name="toolTip">
         <string>&lt;html&gt;&lt;head/&gt;&lt;body&gt;&lt;p&gt;&lt;span style=&quot; font-size:9pt;&quot;&gt;Define the &lt;/span&gt;&lt;span style=&quot; font-size:9pt; font-weight:600;&quot;&gt;Z&lt;/span&gt;&lt;span style=&quot; font-size:9pt;&quot;&gt; component of the gravity.&lt;/span&gt;&lt;/p&gt;&lt;p&gt;&lt;span style=&quot; font-size:9pt;&quot;&gt;(Code_Saturne key word: &lt;/span&gt;&lt;span style=&quot; font-size:9pt; font-weight:600;&quot;&gt;GZ&lt;/span&gt;&lt;span style=&quot; font-size:9pt;&quot;&gt;)&lt;/span&gt;&lt;/p&gt;&lt;/body&gt;&lt;/html&gt;</string>
        </property>
        <property name="text">
         <string>g&lt;sub&gt;z&lt;/sub</string>
        </property>
       </widget>
      </item>
      <item row="1" column="1">
       <widget class="QLabel" name="labelX">
        <property name="font">
         <font>
          <weight>50</weight>
          <italic>false</italic>
          <bold>false</bold>
         </font>
        </property>
        <property name="toolTip">
         <string>&lt;html&gt;&lt;head/&gt;&lt;body&gt;&lt;p&gt;&lt;span style=&quot; font-size:9pt;&quot;&gt;Define the &lt;/span&gt;&lt;span style=&quot; font-size:9pt; font-weight:600;&quot;&gt;X&lt;/span&gt;&lt;span style=&quot; font-size:9pt;&quot;&gt; component of the gravity.&lt;/span&gt;&lt;/p&gt;&lt;p&gt;&lt;span style=&quot; font-size:9pt;&quot;&gt;(Code_Saturne key word: &lt;/span&gt;&lt;span style=&quot; font-size:9pt; font-weight:600;&quot;&gt;GX&lt;/span&gt;&lt;span style=&quot; font-size:9pt;&quot;&gt;)&lt;/span&gt;&lt;/p&gt;&lt;/body&gt;&lt;/html&gt;</string>
        </property>
        <property name="text">
         <string>g&lt;sub&gt;x&lt;/sub</string>
        </property>
       </widget>
      </item>
      <item row="2" column="3">
       <widget class="QLabel" name="labelUnitY">
        <property name="font">
         <font>
          <weight>50</weight>
          <italic>false</italic>
          <bold>false</bold>
         </font>
        </property>
        <property name="toolTip">
         <string>&lt;html&gt;&lt;head/&gt;&lt;body&gt;&lt;p&gt;&lt;span style=&quot; font-size:9pt;&quot;&gt;Define the &lt;/span&gt;&lt;span style=&quot; font-size:9pt; font-weight:600;&quot;&gt;Y&lt;/span&gt;&lt;span style=&quot; font-size:9pt;&quot;&gt; component of the gravity.&lt;/span&gt;&lt;/p&gt;&lt;p&gt;&lt;span style=&quot; font-size:9pt;&quot;&gt;(Code_Saturne key word: &lt;/span&gt;&lt;span style=&quot; font-size:9pt; font-weight:600;&quot;&gt;GY&lt;/span&gt;&lt;span style=&quot; font-size:9pt;&quot;&gt;)&lt;/span&gt;&lt;/p&gt;&lt;/body&gt;&lt;/html&gt;</string>
        </property>
        <property name="text">
         <string>m/s&lt;sup&gt;2&lt;/sup&gt;</string>
        </property>
       </widget>
      </item>
      <item row="3" column="2">
       <widget class="QLineEdit" name="lineEditZ">
        <property name="toolTip">
         <string>&lt;html&gt;&lt;head/&gt;&lt;body&gt;&lt;p&gt;&lt;span style=&quot; font-size:9pt;&quot;&gt;Define the &lt;/span&gt;&lt;span style=&quot; font-size:9pt; font-weight:600;&quot;&gt;Z&lt;/span&gt;&lt;span style=&quot; font-size:9pt;&quot;&gt; component of the gravity.&lt;/span&gt;&lt;/p&gt;&lt;p&gt;&lt;span style=&quot; font-size:9pt;&quot;&gt;(Code_Saturne key word: &lt;/span&gt;&lt;span style=&quot; font-size:9pt; font-weight:600;&quot;&gt;GZ&lt;/span&gt;&lt;span style=&quot; font-size:9pt;&quot;&gt;)&lt;/span&gt;&lt;/p&gt;&lt;/body&gt;&lt;/html&gt;</string>
        </property>
       </widget>
      </item>
      <item row="1" column="4">
       <spacer>
        <property name="orientation">
         <enum>Qt::Horizontal</enum>
        </property>
        <property name="sizeHint" stdset="0">
         <size>
          <width>40</width>
          <height>22</height>
         </size>
        </property>
       </spacer>
      </item>
      <item row="3" column="3">
       <widget class="QLabel" name="labelUnitZ">
        <property name="font">
         <font>
          <weight>50</weight>
          <italic>false</italic>
          <bold>false</bold>
         </font>
        </property>
        <property name="toolTip">
         <string>&lt;html&gt;&lt;head/&gt;&lt;body&gt;&lt;p&gt;&lt;span style=&quot; font-size:9pt;&quot;&gt;Define the &lt;/span&gt;&lt;span style=&quot; font-size:9pt; font-weight:600;&quot;&gt;Z&lt;/span&gt;&lt;span style=&quot; font-size:9pt;&quot;&gt; component of the gravity.&lt;/span&gt;&lt;/p&gt;&lt;p&gt;&lt;span style=&quot; font-size:9pt;&quot;&gt;(Code_Saturne key word: &lt;/span&gt;&lt;span style=&quot; font-size:9pt; font-weight:600;&quot;&gt;GZ&lt;/span&gt;&lt;span style=&quot; font-size:9pt;&quot;&gt;)&lt;/span&gt;&lt;/p&gt;&lt;/body&gt;&lt;/html&gt;</string>
        </property>
        <property name="text">
         <string>m/s&lt;sup&gt;2&lt;/sup&gt;</string>
        </property>
       </widget>
      </item>
      <item row="2" column="1">
       <widget class="QLabel" name="labelY">
        <property name="font">
         <font>
          <weight>50</weight>
          <italic>false</italic>
          <bold>false</bold>
         </font>
        </property>
        <property name="toolTip">
         <string>&lt;html&gt;&lt;head/&gt;&lt;body&gt;&lt;p&gt;&lt;span style=&quot; font-size:9pt;&quot;&gt;Define the &lt;/span&gt;&lt;span style=&quot; font-size:9pt; font-weight:600;&quot;&gt;Y&lt;/span&gt;&lt;span style=&quot; font-size:9pt;&quot;&gt; component of the gravity.&lt;/span&gt;&lt;/p&gt;&lt;p&gt;&lt;span style=&quot; font-size:9pt;&quot;&gt;(Code_Saturne key word: &lt;/span&gt;&lt;span style=&quot; font-size:9pt; font-weight:600;&quot;&gt;GY&lt;/span&gt;&lt;span style=&quot; font-size:9pt;&quot;&gt;)&lt;/span&gt;&lt;/p&gt;&lt;/body&gt;&lt;/html&gt;</string>
        </property>
        <property name="text">
         <string>g&lt;sub&gt;y&lt;/sub</string>
        </property>
       </widget>
      </item>
      <item row="2" column="2">
       <widget class="QLineEdit" name="lineEditY">
        <property name="toolTip">
         <string>&lt;html&gt;&lt;head/&gt;&lt;body&gt;&lt;p&gt;&lt;span style=&quot; font-size:9pt;&quot;&gt;Define the &lt;/span&gt;&lt;span style=&quot; font-size:9pt; font-weight:600;&quot;&gt;Y&lt;/span&gt;&lt;span style=&quot; font-size:9pt;&quot;&gt; component of the gravity.&lt;/span&gt;&lt;/p&gt;&lt;p&gt;&lt;span style=&quot; font-size:9pt;&quot;&gt;(Code_Saturne key word: &lt;/span&gt;&lt;span style=&quot; font-size:9pt; font-weight:600;&quot;&gt;GY&lt;/span&gt;&lt;span style=&quot; font-size:9pt;&quot;&gt;)&lt;/span&gt;&lt;/p&gt;&lt;/body&gt;&lt;/html&gt;</string>
        </property>
       </widget>
      </item>
      <item row="1" column="3">
       <widget class="QLabel" name="labelUnitX">
        <property name="font">
         <font>
          <weight>50</weight>
          <italic>false</italic>
          <bold>false</bold>
         </font>
        </property>
        <property name="toolTip">
         <string>&lt;html&gt;&lt;head/&gt;&lt;body&gt;&lt;p&gt;&lt;span style=&quot; font-size:9pt;&quot;&gt;Define the &lt;/span&gt;&lt;span style=&quot; font-size:9pt; font-weight:600;&quot;&gt;X&lt;/span&gt;&lt;span style=&quot; font-size:9pt;&quot;&gt; component of the gravity.&lt;/span&gt;&lt;/p&gt;&lt;p&gt;&lt;span style=&quot; font-size:9pt;&quot;&gt;(Code_Saturne key word: &lt;/span&gt;&lt;span style=&quot; font-size:9pt; font-weight:600;&quot;&gt;GX&lt;/span&gt;&lt;span style=&quot; font-size:9pt;&quot;&gt;)&lt;/span&gt;&lt;/p&gt;&lt;/body&gt;&lt;/html&gt;</string>
        </property>
        <property name="text">
         <string>m/s&lt;sup&gt;2&lt;/sup&gt;</string>
        </property>
       </widget>
      </item>
     </layout>
    </widget>
   </item>
   <item row="1" column="0">
    <widget class="QGroupBox" name="groupBoxCoriolis">
     <property name="sizePolicy">
      <sizepolicy hsizetype="Preferred" vsizetype="Preferred">
       <horstretch>0</horstretch>
       <verstretch>0</verstretch>
      </sizepolicy>
     </property>
     <property name="font">
      <font>
       <weight>50</weight>
       <italic>false</italic>
       <bold>false</bold>
      </font>
     </property>
     <property name="toolTip">
      <string>&lt;html&gt;&lt;head/&gt;&lt;body&gt;&lt;p&gt;&lt;span style=&quot; font-size:9pt;&quot;&gt;Define Coriolis source terms.&lt;/span&gt;&lt;/p&gt;&lt;/body&gt;&lt;/html&gt;</string>
     </property>
     <property name="title">
      <string>Coriolis source terms</string>
     </property>
     <layout class="QGridLayout" name="gridLayout">
      <item row="1" column="4">
       <widget class="QLabel" name="labelUnitY_2">
        <property name="font">
         <font>
          <weight>50</weight>
          <italic>false</italic>
          <bold>false</bold>
         </font>
        </property>
        <property name="toolTip">
         <string>&lt;html&gt;&lt;head/&gt;&lt;body&gt;&lt;p&gt;&lt;span style=&quot; font-size:9pt;&quot;&gt;Define the &lt;/span&gt;&lt;span style=&quot; font-size:9pt; font-weight:600;&quot;&gt;Y&lt;/span&gt;&lt;span style=&quot; font-size:9pt;&quot;&gt; component of the rotation vector Omega.&lt;/span&gt;&lt;/p&gt;&lt;p&gt;&lt;span style=&quot; font-size:9pt;&quot;&gt;(Code_Saturne key word: &lt;/span&gt;&lt;span style=&quot; font-size:9pt; font-weight:600;&quot;&gt;OMEGAY&lt;/span&gt;&lt;span style=&quot; font-size:9pt;&quot;&gt;)&lt;/span&gt;&lt;/p&gt;&lt;/body&gt;&lt;/html&gt;</string>
        </property>
        <property name="text">
         <string>&lt;!DOCTYPE HTML PUBLIC &quot;-//W3C//DTD HTML 4.0//EN&quot; &quot;http://www.w3.org/TR/REC-html40/strict.dtd&quot;&gt;
&lt;html&gt;&lt;head&gt;&lt;meta name=&quot;qrichtext&quot; content=&quot;1&quot; /&gt;&lt;style type=&quot;text/css&quot;&gt;
p, li { white-space: pre-wrap; }
&lt;/style&gt;&lt;/head&gt;&lt;body style=&quot; font-family:'Sans Serif'; font-size:9pt; font-weight:400; font-style:normal;&quot;&gt;
&lt;p style=&quot; margin-top:0px; margin-bottom:0px; margin-left:0px; margin-right:0px; -qt-block-indent:0; text-indent:0px;&quot;&gt;s&lt;span style=&quot; vertical-align:super;&quot;&gt;-1&lt;/span&gt;&lt;/p&gt;&lt;/body&gt;&lt;/html&gt;</string>
        </property>
       </widget>
      </item>
      <item row="3" column="1">
       <widget class="QLabel" name="labelOMEGAXZ">
        <property name="font">
         <font>
          <weight>50</weight>
          <italic>false</italic>
          <bold>false</bold>
         </font>
        </property>
        <property name="toolTip">
         <string>&lt;html&gt;&lt;head/&gt;&lt;body&gt;&lt;p&gt;&lt;span style=&quot; font-size:9pt;&quot;&gt;Define the &lt;/span&gt;&lt;span style=&quot; font-size:9pt; font-weight:600;&quot;&gt;Z&lt;/span&gt;&lt;span style=&quot; font-size:9pt;&quot;&gt; component of the rotation vector Omega.&lt;/span&gt;&lt;/p&gt;&lt;p&gt;&lt;span style=&quot; font-size:9pt;&quot;&gt;(Code_Saturne key word: &lt;/span&gt;&lt;span style=&quot; font-size:9pt; font-weight:600;&quot;&gt;OMEGAZ&lt;/span&gt;&lt;span style=&quot; font-size:9pt;&quot;&gt;)&lt;/span&gt;&lt;/p&gt;&lt;/body&gt;&lt;/html&gt;</string>
        </property>
        <property name="text">
         <string>&lt;!DOCTYPE HTML PUBLIC &quot;-//W3C//DTD HTML 4.0//EN&quot; &quot;http://www.w3.org/TR/REC-html40/strict.dtd&quot;&gt;
&lt;html&gt;&lt;head&gt;&lt;meta name=&quot;qrichtext&quot; content=&quot;1&quot; /&gt;&lt;style type=&quot;text/css&quot;&gt;
p, li { white-space: pre-wrap; }
&lt;/style&gt;&lt;/head&gt;&lt;body style=&quot; font-family:'Noto Sans'; font-size:10pt; font-weight:400; font-style:normal;&quot;&gt;
&lt;p style=&quot; margin-top:0px; margin-bottom:0px; margin-left:0px; margin-right:0px; -qt-block-indent:0; text-indent:0px;&quot;&gt;&lt;span style=&quot; font-family:'Sans Serif'; font-size:9pt;&quot;&gt;Rotation vector &lt;/span&gt;&lt;span style=&quot; font-family:'Symbol'; font-size:12pt;&quot;&gt;W&lt;/span&gt;&lt;span style=&quot; font-family:'Sans Serif'; font-size:9pt; vertical-align:sub;&quot;&gt;z&lt;/span&gt;&lt;/p&gt;&lt;/body&gt;&lt;/html&gt;</string>
        </property>
       </widget>
      </item>
      <item row="2" column="4">
       <widget class="QLabel" name="labelUnitX_2">
        <property name="font">
         <font>
          <weight>50</weight>
          <italic>false</italic>
          <bold>false</bold>
         </font>
        </property>
        <property name="toolTip">
         <string>&lt;html&gt;&lt;head/&gt;&lt;body&gt;&lt;p&gt;&lt;span style=&quot; font-size:9pt;&quot;&gt;Define the &lt;/span&gt;&lt;span style=&quot; font-size:9pt; font-weight:600;&quot;&gt;X&lt;/span&gt;&lt;span style=&quot; font-size:9pt;&quot;&gt; component of the rotation vector Omega.&lt;/span&gt;&lt;/p&gt;&lt;p&gt;&lt;span style=&quot; font-size:9pt;&quot;&gt;(Code_Saturne key word: &lt;/span&gt;&lt;span style=&quot; font-size:9pt; font-weight:600;&quot;&gt;OMEGAX&lt;/span&gt;&lt;span style=&quot; font-size:9pt;&quot;&gt;)&lt;/span&gt;&lt;/p&gt;&lt;/body&gt;&lt;/html&gt;</string>
        </property>
        <property name="text">
         <string>&lt;!DOCTYPE HTML PUBLIC &quot;-//W3C//DTD HTML 4.0//EN&quot; &quot;http://www.w3.org/TR/REC-html40/strict.dtd&quot;&gt;
&lt;html&gt;&lt;head&gt;&lt;meta name=&quot;qrichtext&quot; content=&quot;1&quot; /&gt;&lt;style type=&quot;text/css&quot;&gt;
p, li { white-space: pre-wrap; }
&lt;/style&gt;&lt;/head&gt;&lt;body style=&quot; font-family:'Sans Serif'; font-size:9pt; font-weight:400; font-style:normal;&quot;&gt;
&lt;p style=&quot; margin-top:0px; margin-bottom:0px; margin-left:0px; margin-right:0px; -qt-block-indent:0; text-indent:0px;&quot;&gt;s&lt;span style=&quot; vertical-align:super;&quot;&gt;-1&lt;/span&gt;&lt;/p&gt;&lt;/body&gt;&lt;/html&gt;</string>
        </property>
       </widget>
      </item>
      <item row="2" column="1">
       <widget class="QLabel" name="labelOMEGAXY">
        <property name="font">
         <font>
          <weight>50</weight>
          <italic>false</italic>
          <bold>false</bold>
         </font>
        </property>
        <property name="toolTip">
         <string>&lt;html&gt;&lt;head/&gt;&lt;body&gt;&lt;p&gt;&lt;span style=&quot; font-size:9pt;&quot;&gt;Define the &lt;/span&gt;&lt;span style=&quot; font-size:9pt; font-weight:600;&quot;&gt;Y&lt;/span&gt;&lt;span style=&quot; font-size:9pt;&quot;&gt; component of the rotation vector Omega.&lt;/span&gt;&lt;/p&gt;&lt;p&gt;&lt;span style=&quot; font-size:9pt;&quot;&gt;(Code_Saturne key word: &lt;/span&gt;&lt;span style=&quot; font-size:9pt; font-weight:600;&quot;&gt;OMEGAY&lt;/span&gt;&lt;span style=&quot; font-size:9pt;&quot;&gt;)&lt;/span&gt;&lt;/p&gt;&lt;/body&gt;&lt;/html&gt;</string>
        </property>
        <property name="text">
         <string>&lt;!DOCTYPE HTML PUBLIC &quot;-//W3C//DTD HTML 4.0//EN&quot; &quot;http://www.w3.org/TR/REC-html40/strict.dtd&quot;&gt;
&lt;html&gt;&lt;head&gt;&lt;meta name=&quot;qrichtext&quot; content=&quot;1&quot; /&gt;&lt;style type=&quot;text/css&quot;&gt;
p, li { white-space: pre-wrap; }
&lt;/style&gt;&lt;/head&gt;&lt;body style=&quot; font-family:'Noto Sans'; font-size:10pt; font-weight:400; font-style:normal;&quot;&gt;
&lt;p style=&quot; margin-top:0px; margin-bottom:0px; margin-left:0px; margin-right:0px; -qt-block-indent:0; text-indent:0px;&quot;&gt;&lt;span style=&quot; font-family:'Sans Serif'; font-size:9pt;&quot;&gt;Rotation vector &lt;/span&gt;&lt;span style=&quot; font-family:'Symbol'; font-size:12pt;&quot;&gt;W&lt;/span&gt;&lt;span style=&quot; font-family:'Sans Serif'; font-size:9pt; vertical-align:sub;&quot;&gt;y&lt;/span&gt;&lt;/p&gt;&lt;/body&gt;&lt;/html&gt;</string>
        </property>
       </widget>
      </item>
      <item row="1" column="2">
       <widget class="QLineEdit" name="lineEditOMEGAX">
        <property name="toolTip">
         <string>&lt;html&gt;&lt;head/&gt;&lt;body&gt;&lt;p&gt;&lt;span style=&quot; font-size:9pt;&quot;&gt;Define the &lt;/span&gt;&lt;span style=&quot; font-size:9pt; font-weight:600;&quot;&gt;X&lt;/span&gt;&lt;span style=&quot; font-size:9pt;&quot;&gt; component of the rotation vector Omega.&lt;/span&gt;&lt;/p&gt;&lt;p&gt;&lt;span style=&quot; font-size:9pt;&quot;&gt;(Code_Saturne key word: &lt;/span&gt;&lt;span style=&quot; font-size:9pt; font-weight:600;&quot;&gt;OMEGAX&lt;/span&gt;&lt;span style=&quot; font-size:9pt;&quot;&gt;)&lt;/span&gt;&lt;/p&gt;&lt;/body&gt;&lt;/html&gt;</string>
        </property>
       </widget>
      </item>
      <item row="1" column="1">
       <widget class="QLabel" name="labelOMEGAXX">
        <property name="font">
         <font>
          <weight>50</weight>
          <italic>false</italic>
          <bold>false</bold>
         </font>
        </property>
        <property name="toolTip">
         <string>&lt;html&gt;&lt;head/&gt;&lt;body&gt;&lt;p&gt;&lt;span style=&quot; font-size:9pt;&quot;&gt;Define the &lt;/span&gt;&lt;span style=&quot; font-size:9pt; font-weight:600;&quot;&gt;X&lt;/span&gt;&lt;span style=&quot; font-size:9pt;&quot;&gt; component of the rotation vector Omega.&lt;/span&gt;&lt;/p&gt;&lt;p&gt;&lt;span style=&quot; font-size:9pt;&quot;&gt;(Code_Saturne key word: &lt;/span&gt;&lt;span style=&quot; font-size:9pt; font-weight:600;&quot;&gt;OMEGAX&lt;/span&gt;&lt;span style=&quot; font-size:9pt;&quot;&gt;)&lt;/span&gt;&lt;/p&gt;&lt;/body&gt;&lt;/html&gt;</string>
        </property>
        <property name="text">
         <string>&lt;!DOCTYPE HTML PUBLIC &quot;-//W3C//DTD HTML 4.0//EN&quot; &quot;http://www.w3.org/TR/REC-html40/strict.dtd&quot;&gt;
&lt;html&gt;&lt;head&gt;&lt;meta name=&quot;qrichtext&quot; content=&quot;1&quot; /&gt;&lt;style type=&quot;text/css&quot;&gt;
p, li { white-space: pre-wrap; }
&lt;/style&gt;&lt;/head&gt;&lt;body style=&quot; font-family:'Noto Sans'; font-size:10pt; font-weight:400; font-style:normal;&quot;&gt;
&lt;p style=&quot; margin-top:0px; margin-bottom:0px; margin-left:0px; margin-right:0px; -qt-block-indent:0; text-indent:0px;&quot;&gt;&lt;span style=&quot; font-family:'Sans Serif'; font-size:9pt;&quot;&gt;Rotation vector &lt;/span&gt;&lt;span style=&quot; font-family:'Symbol'; font-size:12pt;&quot;&gt;W&lt;/span&gt;&lt;span style=&quot; font-family:'Sans Serif'; font-size:9pt; vertical-align:sub;&quot;&gt;x&lt;/span&gt;&lt;/p&gt;&lt;/body&gt;&lt;/html&gt;</string>
        </property>
       </widget>
      </item>
      <item row="3" column="2">
       <widget class="QLineEdit" name="lineEditOMEGAZ">
        <property name="toolTip">
         <string>&lt;html&gt;&lt;head/&gt;&lt;body&gt;&lt;p&gt;&lt;span style=&quot; font-size:9pt;&quot;&gt;Define the &lt;/span&gt;&lt;span style=&quot; font-size:9pt; font-weight:600;&quot;&gt;Z&lt;/span&gt;&lt;span style=&quot; font-size:9pt;&quot;&gt; component of the rotation vector Omega.&lt;/span&gt;&lt;/p&gt;&lt;p&gt;&lt;span style=&quot; font-size:9pt;&quot;&gt;(Code_Saturne key word: &lt;/span&gt;&lt;span style=&quot; font-size:9pt; font-weight:600;&quot;&gt;OMEGAZ&lt;/span&gt;&lt;span style=&quot; font-size:9pt;&quot;&gt;)&lt;/span&gt;&lt;/p&gt;&lt;/body&gt;&lt;/html&gt;</string>
        </property>
       </widget>
      </item>
      <item row="2" column="2">
       <widget class="QLineEdit" name="lineEditOMEGAY">
        <property name="toolTip">
         <string>&lt;html&gt;&lt;head/&gt;&lt;body&gt;&lt;p&gt;&lt;span style=&quot; font-size:9pt;&quot;&gt;Define the &lt;/span&gt;&lt;span style=&quot; font-size:9pt; font-weight:600;&quot;&gt;Y&lt;/span&gt;&lt;span style=&quot; font-size:9pt;&quot;&gt; component of the rotation vector Omega.&lt;/span&gt;&lt;/p&gt;&lt;p&gt;&lt;span style=&quot; font-size:9pt;&quot;&gt;(Code_Saturne key word: &lt;/span&gt;&lt;span style=&quot; font-size:9pt; font-weight:600;&quot;&gt;OMEGAY&lt;/span&gt;&lt;span style=&quot; font-size:9pt;&quot;&gt;)&lt;/span&gt;&lt;/p&gt;&lt;/body&gt;&lt;/html&gt;</string>
        </property>
       </widget>
      </item>
      <item row="3" column="4">
       <widget class="QLabel" name="labelUnitZ_2">
        <property name="font">
         <font>
          <weight>50</weight>
          <italic>false</italic>
          <bold>false</bold>
         </font>
        </property>
        <property name="toolTip">
         <string>&lt;html&gt;&lt;head/&gt;&lt;body&gt;&lt;p&gt;&lt;span style=&quot; font-size:9pt;&quot;&gt;Define the &lt;/span&gt;&lt;span style=&quot; font-size:9pt; font-weight:600;&quot;&gt;Z&lt;/span&gt;&lt;span style=&quot; font-size:9pt;&quot;&gt; component of the rotation vector Omega.&lt;/span&gt;&lt;/p&gt;&lt;p&gt;&lt;span style=&quot; font-size:9pt;&quot;&gt;(Code_Saturne key word: &lt;/span&gt;&lt;span style=&quot; font-size:9pt; font-weight:600;&quot;&gt;OMEGAZ&lt;/span&gt;&lt;span style=&quot; font-size:9pt;&quot;&gt;)&lt;/span&gt;&lt;/p&gt;&lt;/body&gt;&lt;/html&gt;</string>
        </property>
        <property name="text">
         <string>&lt;!DOCTYPE HTML PUBLIC &quot;-//W3C//DTD HTML 4.0//EN&quot; &quot;http://www.w3.org/TR/REC-html40/strict.dtd&quot;&gt;
&lt;html&gt;&lt;head&gt;&lt;meta name=&quot;qrichtext&quot; content=&quot;1&quot; /&gt;&lt;style type=&quot;text/css&quot;&gt;
p, li { white-space: pre-wrap; }
&lt;/style&gt;&lt;/head&gt;&lt;body style=&quot; font-family:'Sans Serif'; font-size:9pt; font-weight:400; font-style:normal;&quot;&gt;
&lt;p style=&quot; margin-top:0px; margin-bottom:0px; margin-left:0px; margin-right:0px; -qt-block-indent:0; text-indent:0px;&quot;&gt;s&lt;span style=&quot; vertical-align:super;&quot;&gt;-1&lt;/span&gt;&lt;/p&gt;&lt;/body&gt;&lt;/html&gt;</string>
        </property>
       </widget>
      </item>
      <item row="1" column="5">
       <spacer>
        <property name="orientation">
         <enum>Qt::Horizontal</enum>
        </property>
        <property name="sizeHint" stdset="0">
         <size>
          <width>13</width>
          <height>5</height>
         </size>
        </property>
       </spacer>
      </item>
      <item row="1" column="0">
       <spacer>
        <property name="orientation">
         <enum>Qt::Horizontal</enum>
        </property>
        <property name="sizeHint" stdset="0">
         <size>
          <width>13</width>
          <height>5</height>
         </size>
        </property>
       </spacer>
      </item>
     </layout>
    </widget>
   </item>
  </layout>
 </widget>
 <resources/>
 <connections/>
</ui>
