<?xml version="1.0" encoding="UTF-8"?>
<ui version="4.0">
 <class>FluidCharacteristicsForm</class>
 <widget class="QWidget" name="FluidCharacteristicsForm">
  <property name="geometry">
   <rect>
    <x>0</x>
    <y>0</y>
    <width>487</width>
    <height>1093</height>
   </rect>
  </property>
  <property name="windowTitle">
   <string>Form</string>
  </property>
  <layout class="QGridLayout" name="gridLayout_3">
   <item row="10" column="0">
    <widget class="QGroupBox" name="groupBoxDiftl0">
     <property name="toolTip">
      <string>&lt;html&gt;&lt;head/&gt;&lt;body&gt;&lt;p&gt;&lt;span style=&quot; font-size:9pt;&quot;&gt;Define the dynamic diffusion coefficient in kg/m/s. Useful only with combustion.&lt;/span&gt;&lt;/p&gt;&lt;p&gt;&lt;span style=&quot; font-size:9pt;&quot;&gt;(Code_Saturne key word: &lt;/span&gt;&lt;span style=&quot; font-size:9pt; font-weight:600;&quot;&gt;DIFTL0&lt;/span&gt;&lt;span style=&quot; font-size:9pt;&quot;&gt;)&lt;/span&gt;&lt;/p&gt;&lt;/body&gt;&lt;/html&gt;</string>
     </property>
     <property name="title">
      <string>Dynamic diffusion coefficient</string>
     </property>
     <layout class="QHBoxLayout" name="_2">
      <property name="spacing">
       <number>6</number>
      </property>
      <property name="margin">
       <number>9</number>
      </property>
      <item>
       <spacer>
        <property name="orientation">
         <enum>Qt::Horizontal</enum>
        </property>
        <property name="sizeHint" stdset="0">
         <size>
          <width>53</width>
          <height>22</height>
         </size>
        </property>
       </spacer>
      </item>
      <item>
       <layout class="QVBoxLayout" name="_3">
        <property name="spacing">
         <number>6</number>
        </property>
        <property name="margin">
         <number>0</number>
        </property>
        <item>
         <layout class="QHBoxLayout" name="_4">
          <property name="spacing">
           <number>6</number>
          </property>
          <property name="margin">
           <number>0</number>
          </property>
          <item>
           <layout class="QHBoxLayout" name="_5">
            <property name="spacing">
             <number>6</number>
            </property>
            <property name="margin">
             <number>0</number>
            </property>
            <item>
             <widget class="QComboBox" name="comboBoxDiftl0">
              <property name="toolTip">
               <string>&lt;html&gt;&lt;head/&gt;&lt;body&gt;&lt;p&gt;&lt;span style=&quot; font-size:9pt;&quot;&gt;Fill the formula editor in case of a variable fluid thermal conductivity.&lt;/span&gt;&lt;/p&gt;&lt;/body&gt;&lt;/html&gt;</string>
              </property>
             </widget>
            </item>
            <item>
             <spacer>
              <property name="orientation">
               <enum>Qt::Horizontal</enum>
              </property>
              <property name="sizeHint" stdset="0">
               <size>
                <width>13</width>
                <height>22</height>
               </size>
              </property>
             </spacer>
            </item>
            <item>
             <widget class="QPushButton" name="pushButtonDiftl0">
              <property name="toolTip">
               <string>&lt;html&gt;&lt;head/&gt;&lt;body&gt;&lt;p&gt;&lt;span style=&quot; font-size:9pt;&quot;&gt;Fill the formula editor in case of a variable fluid thermal conductivity.&lt;/span&gt;&lt;/p&gt;&lt;/body&gt;&lt;/html&gt;</string>
              </property>
              <property name="text">
               <string/>
              </property>
              <property name="icon">
               <iconset resource="resources_pages.qrc">
                <normaloff>:/new/prefix1/icons/22x22/edit-find-replace.png</normaloff>:/new/prefix1/icons/22x22/edit-find-replace.png</iconset>
              </property>
              <property name="iconSize">
               <size>
                <width>22</width>
                <height>22</height>
               </size>
              </property>
             </widget>
            </item>
           </layout>
          </item>
          <item>
           <spacer>
            <property name="orientation">
             <enum>Qt::Horizontal</enum>
            </property>
            <property name="sizeHint" stdset="0">
             <size>
              <width>13</width>
              <height>20</height>
             </size>
            </property>
           </spacer>
          </item>
         </layout>
        </item>
        <item>
         <layout class="QHBoxLayout" name="_6">
          <property name="spacing">
           <number>6</number>
          </property>
          <property name="margin">
           <number>0</number>
          </property>
          <item>
           <widget class="QLabel" name="labelDiftl0">
            <property name="toolTip">
             <string>&lt;html&gt;&lt;head/&gt;&lt;body&gt;&lt;p&gt;&lt;span style=&quot; font-size:9pt;&quot;&gt;Define the dynamic diffusion coefficient in kg/m/s. Useful only with combustion.&lt;/span&gt;&lt;/p&gt;&lt;p&gt;&lt;span style=&quot; font-size:9pt;&quot;&gt;(Code_Saturne key word: &lt;/span&gt;&lt;span style=&quot; font-size:9pt; font-weight:600;&quot;&gt;DIFTL0&lt;/span&gt;&lt;span style=&quot; font-size:9pt;&quot;&gt;)&lt;/span&gt;&lt;/p&gt;&lt;/body&gt;&lt;/html&gt;</string>
            </property>
            <property name="text">
             <string>Reference</string>
            </property>
           </widget>
          </item>
          <item>
           <spacer>
            <property name="orientation">
             <enum>Qt::Horizontal</enum>
            </property>
            <property name="sizeHint" stdset="0">
             <size>
              <width>13</width>
              <height>22</height>
             </size>
            </property>
           </spacer>
          </item>
          <item>
           <widget class="QLineEdit" name="lineEditDiftl0">
            <property name="toolTip">
             <string>&lt;html&gt;&lt;head/&gt;&lt;body&gt;&lt;p&gt;&lt;span style=&quot; font-size:9pt;&quot;&gt;Define the dynamic diffusion coefficient in kg/m/s. Useful only with combustion.&lt;/span&gt;&lt;/p&gt;&lt;p&gt;&lt;span style=&quot; font-size:9pt;&quot;&gt;(Code_Saturne key word: &lt;/span&gt;&lt;span style=&quot; font-size:9pt; font-weight:600;&quot;&gt;DIFTL0&lt;/span&gt;&lt;span style=&quot; font-size:9pt;&quot;&gt;)&lt;/span&gt;&lt;/p&gt;&lt;/body&gt;&lt;/html&gt;</string>
            </property>
           </widget>
          </item>
          <item>
           <widget class="QLabel" name="labelUnitDiftl0">
            <property name="toolTip">
             <string>&lt;html&gt;&lt;head/&gt;&lt;body&gt;&lt;p&gt;&lt;span style=&quot; font-size:9pt;&quot;&gt;Define the dynamic diffusion coefficient in kg/m/s. Useful only with combustion.&lt;/span&gt;&lt;/p&gt;&lt;p&gt;&lt;span style=&quot; font-size:9pt;&quot;&gt;(Code_Saturne key word: &lt;/span&gt;&lt;span style=&quot; font-size:9pt; font-weight:600;&quot;&gt;DIFTL0&lt;/span&gt;&lt;span style=&quot; font-size:9pt;&quot;&gt;)&lt;/span&gt;&lt;/p&gt;&lt;/body&gt;&lt;/html&gt;</string>
            </property>
            <property name="text">
             <string>kg/m/s</string>
            </property>
           </widget>
          </item>
         </layout>
        </item>
       </layout>
      </item>
      <item>
       <spacer>
        <property name="orientation">
         <enum>Qt::Horizontal</enum>
        </property>
        <property name="sizeHint" stdset="0">
         <size>
          <width>52</width>
          <height>22</height>
         </size>
        </property>
       </spacer>
      </item>
     </layout>
    </widget>
   </item>
   <item row="3" column="0">
    <widget class="QGroupBox" name="groupBoxTempd3p">
     <property name="toolTip">
      <string>&lt;html&gt;&lt;head/&gt;&lt;body&gt;&lt;p&gt;&lt;span style=&quot; font-size:9pt;&quot;&gt;Define the reference temperatures of the oxydant and the fuel in Kelvin in case of Gas combustion.&lt;/span&gt;&lt;/p&gt;&lt;p&gt;&lt;span style=&quot; font-size:9pt;&quot;&gt;(Code_Saturne key words: &lt;/span&gt;&lt;span style=&quot; font-size:9pt; font-weight:600;&quot;&gt;TINFUE&lt;/span&gt;&lt;span style=&quot; font-size:9pt;&quot;&gt;, &lt;/span&gt;&lt;span style=&quot; font-size:9pt; font-weight:600;&quot;&gt;TINOXY&lt;/span&gt;&lt;span style=&quot; font-size:9pt;&quot;&gt;)&lt;/span&gt;&lt;/p&gt;&lt;/body&gt;&lt;/html&gt;</string>
     </property>
     <property name="title">
      <string>Gas Combustion Reference temperature</string>
     </property>
     <layout class="QGridLayout" name="gridLayout_4">
      <item row="0" column="0">
       <spacer>
        <property name="orientation">
         <enum>Qt::Horizontal</enum>
        </property>
        <property name="sizeHint" stdset="0">
         <size>
          <width>71</width>
          <height>26</height>
         </size>
        </property>
       </spacer>
      </item>
      <item row="0" column="1">
       <layout class="QGridLayout" name="gridLayout_5">
        <item row="0" column="0" colspan="2">
         <widget class="QLabel" name="labelOxydant">
          <property name="toolTip">
           <string>&lt;html&gt;&lt;head/&gt;&lt;body&gt;&lt;p&gt;&lt;span style=&quot; font-size:9pt;&quot;&gt;Define the reference temperatures of the oxydant and the fuel in Kelvin in case of Gas combustion.&lt;/span&gt;&lt;/p&gt;&lt;p&gt;&lt;span style=&quot; font-size:9pt;&quot;&gt;(Code_Saturne key words: &lt;/span&gt;&lt;span style=&quot; font-size:9pt; font-weight:600;&quot;&gt;TINOXY&lt;/span&gt;&lt;span style=&quot; font-size:9pt;&quot;&gt;)&lt;/span&gt;&lt;/p&gt;&lt;/body&gt;&lt;/html&gt;</string>
          </property>
          <property name="text">
           <string>Oxydant</string>
          </property>
         </widget>
        </item>
        <item row="0" column="2">
         <widget class="QLineEdit" name="lineEditOxydant">
          <property name="toolTip">
           <string>&lt;html&gt;&lt;head/&gt;&lt;body&gt;&lt;p&gt;&lt;span style=&quot; font-size:9pt;&quot;&gt;Define the reference temperatures of the oxydant and the fuel in Kelvin in case of Gas combustion.&lt;/span&gt;&lt;/p&gt;&lt;p&gt;&lt;span style=&quot; font-size:9pt;&quot;&gt;(Code_Saturne key words: &lt;/span&gt;&lt;span style=&quot; font-size:9pt; font-weight:600;&quot;&gt;TINOXY&lt;/span&gt;&lt;span style=&quot; font-size:9pt;&quot;&gt;)&lt;/span&gt;&lt;/p&gt;&lt;/body&gt;&lt;/html&gt;</string>
          </property>
         </widget>
        </item>
        <item row="0" column="3">
         <widget class="QLabel" name="labelUnitT0_2">
          <property name="toolTip">
           <string>&lt;html&gt;&lt;head/&gt;&lt;body&gt;&lt;p&gt;&lt;span style=&quot; font-size:9pt;&quot;&gt;Define the reference temperatures of the oxydant and the fuel in Kelvin in case of Gas combustion.&lt;/span&gt;&lt;/p&gt;&lt;p&gt;&lt;span style=&quot; font-size:9pt;&quot;&gt;(Code_Saturne key words: &lt;/span&gt;&lt;span style=&quot; font-size:9pt; font-weight:600;&quot;&gt;TINOXY&lt;/span&gt;&lt;span style=&quot; font-size:9pt;&quot;&gt;)&lt;/span&gt;&lt;/p&gt;&lt;/body&gt;&lt;/html&gt;</string>
          </property>
          <property name="text">
           <string>K</string>
          </property>
         </widget>
        </item>
        <item row="1" column="0">
         <widget class="QLabel" name="labelTFuel">
          <property name="toolTip">
           <string>&lt;html&gt;&lt;head/&gt;&lt;body&gt;&lt;p&gt;&lt;span style=&quot; font-size:9pt;&quot;&gt;Define the reference temperature for the fuel in Kelvin in case of Gas combustion.&lt;/span&gt;&lt;/p&gt;&lt;p&gt;&lt;span style=&quot; font-size:9pt;&quot;&gt;(Code_Saturne key word: &lt;/span&gt;&lt;span style=&quot; font-size:9pt; font-weight:600;&quot;&gt;TINFUE&lt;/span&gt;&lt;span style=&quot; font-size:9pt;&quot;&gt;)&lt;/span&gt;&lt;/p&gt;&lt;/body&gt;&lt;/html&gt;</string>
          </property>
          <property name="text">
           <string>Fuel</string>
          </property>
         </widget>
        </item>
        <item row="1" column="1">
         <spacer>
          <property name="orientation">
           <enum>Qt::Horizontal</enum>
          </property>
          <property name="sizeHint" stdset="0">
           <size>
            <width>16</width>
            <height>20</height>
           </size>
          </property>
         </spacer>
        </item>
        <item row="1" column="2">
         <widget class="QLineEdit" name="lineEditFuel">
          <property name="toolTip">
           <string>&lt;html&gt;&lt;head/&gt;&lt;body&gt;&lt;p&gt;&lt;span style=&quot; font-size:9pt;&quot;&gt;Define the reference temperature for the fuel in Kelvin in case of Gas combustion.&lt;/span&gt;&lt;/p&gt;&lt;p&gt;&lt;span style=&quot; font-size:9pt;&quot;&gt;(Code_Saturne key word: &lt;/span&gt;&lt;span style=&quot; font-size:9pt; font-weight:600;&quot;&gt;TINFUE&lt;/span&gt;&lt;span style=&quot; font-size:9pt;&quot;&gt;)&lt;/span&gt;&lt;/p&gt;&lt;/body&gt;&lt;/html&gt;</string>
          </property>
         </widget>
        </item>
        <item row="1" column="3">
         <widget class="QLabel" name="labelUnitT0_3">
          <property name="toolTip">
           <string>&lt;html&gt;&lt;head/&gt;&lt;body&gt;&lt;p&gt;&lt;span style=&quot; font-size:9pt;&quot;&gt;Define the reference temperature for the fuel in Kelvin in case of Gas combustion.&lt;/span&gt;&lt;/p&gt;&lt;p&gt;&lt;span style=&quot; font-size:9pt;&quot;&gt;(Code_Saturne key word: &lt;/span&gt;&lt;span style=&quot; font-size:9pt; font-weight:600;&quot;&gt;TINFUE&lt;/span&gt;&lt;span style=&quot; font-size:9pt;&quot;&gt;)&lt;/span&gt;&lt;/p&gt;&lt;/body&gt;&lt;/html&gt;</string>
          </property>
          <property name="text">
           <string>K</string>
          </property>
         </widget>
        </item>
       </layout>
      </item>
      <item row="0" column="2">
       <spacer>
        <property name="orientation">
         <enum>Qt::Horizontal</enum>
        </property>
        <property name="sizeHint" stdset="0">
         <size>
          <width>71</width>
          <height>26</height>
         </size>
        </property>
       </spacer>
      </item>
     </layout>
    </widget>
   </item>
   <item row="0" column="0">
    <widget class="QGroupBox" name="groupBoxTableChoice">
     <property name="title">
      <string/>
     </property>
     <layout class="QGridLayout" name="gridLayout_2">
      <item row="0" column="0">
       <spacer>
        <property name="orientation">
         <enum>Qt::Horizontal</enum>
        </property>
        <property name="sizeHint" stdset="0">
         <size>
          <width>53</width>
          <height>20</height>
         </size>
        </property>
       </spacer>
      </item>
      <item row="0" column="1">
       <layout class="QGridLayout" name="gridLayout">
        <item row="0" column="0">
         <widget class="QLabel" name="label_2">
          <property name="toolTip">
           <string>&lt;html&gt;&lt;head/&gt;&lt;body&gt;&lt;p&gt;&lt;span style=&quot; font-size:9pt;&quot;&gt;Select a fluid and a method to compute its physical properties. Choosing user material allows to customize the fluid physical properties.&lt;/span&gt;&lt;/p&gt;&lt;/body&gt;&lt;/html&gt;</string>
          </property>
          <property name="text">
           <string>Material</string>
          </property>
         </widget>
        </item>
        <item row="0" column="1">
         <spacer name="horizontalSpacer_2">
          <property name="orientation">
           <enum>Qt::Horizontal</enum>
          </property>
          <property name="sizeHint" stdset="0">
           <size>
            <width>13</width>
            <height>20</height>
           </size>
          </property>
         </spacer>
        </item>
        <item row="0" column="2">
         <widget class="QComboBox" name="comboBoxMaterial">
          <property name="toolTip">
           <string>&lt;html&gt;&lt;head/&gt;&lt;body&gt;&lt;p&gt;&lt;span style=&quot; font-size:9pt;&quot;&gt;Select a fluid and a method to compute its physical properties. Choosing user material allows to customize the fluid physical properties.&lt;/span&gt;&lt;/p&gt;&lt;/body&gt;&lt;/html&gt;</string>
          </property>
         </widget>
        </item>
        <item row="0" column="3">
         <spacer name="horizontalSpacer">
          <property name="orientation">
           <enum>Qt::Horizontal</enum>
          </property>
          <property name="sizeHint" stdset="0">
           <size>
            <width>40</width>
            <height>17</height>
           </size>
          </property>
         </spacer>
        </item>
        <item row="1" column="0">
         <widget class="QLabel" name="label_3">
          <property name="toolTip">
           <string>&lt;html&gt;&lt;head/&gt;&lt;body&gt;&lt;p&gt;&lt;span style=&quot; font-size:9pt;&quot;&gt;Select a method to compute the fluid physical properties.&lt;/span&gt;&lt;/p&gt;&lt;p&gt;&lt;span style=&quot; font-size:9pt;&quot;&gt;Useful only with predefined materials.&lt;/span&gt;&lt;/p&gt;&lt;/body&gt;&lt;/html&gt;</string>
          </property>
          <property name="text">
           <string>Method</string>
          </property>
         </widget>
        </item>
        <item row="1" column="1">
         <spacer name="horizontalSpacer_3">
          <property name="orientation">
           <enum>Qt::Horizontal</enum>
          </property>
          <property name="sizeHint" stdset="0">
           <size>
            <width>13</width>
            <height>20</height>
           </size>
          </property>
         </spacer>
        </item>
        <item row="1" column="2">
         <widget class="QComboBox" name="comboBoxMethod">
          <property name="toolTip">
           <string>&lt;html&gt;&lt;head/&gt;&lt;body&gt;&lt;p&gt;&lt;span style=&quot; font-size:9pt;&quot;&gt;Select a method to compute the physical properties.&lt;/span&gt;&lt;/p&gt;&lt;p&gt;&lt;span style=&quot; font-size:9pt;&quot;&gt;Useful only with predefined materials.&lt;/span&gt;&lt;/p&gt;&lt;/body&gt;&lt;/html&gt;</string>
          </property>
         </widget>
        </item>
        <item row="1" column="3">
         <spacer name="horizontalSpacer_6">
          <property name="orientation">
           <enum>Qt::Horizontal</enum>
          </property>
          <property name="sizeHint" stdset="0">
           <size>
            <width>40</width>
            <height>17</height>
           </size>
          </property>
         </spacer>
        </item>
        <item row="2" column="0">
         <widget class="QLabel" name="labelPhas">
          <property name="toolTip">
           <string>&lt;html&gt;&lt;head/&gt;&lt;body&gt;&lt;p&gt;&lt;span style=&quot; font-size:9pt;&quot;&gt;Select the nature of the fluid, liquid or gas.&lt;/span&gt;&lt;/p&gt;&lt;/body&gt;&lt;/html&gt;</string>
          </property>
          <property name="text">
           <string>Nature</string>
          </property>
         </widget>
        </item>
        <item row="2" column="1">
         <spacer name="horizontalSpacer_5">
          <property name="orientation">
           <enum>Qt::Horizontal</enum>
          </property>
          <property name="sizeHint" stdset="0">
           <size>
            <width>13</width>
            <height>20</height>
           </size>
          </property>
         </spacer>
        </item>
        <item row="2" column="2">
         <widget class="QComboBox" name="comboBoxPhas">
          <property name="toolTip">
           <string>&lt;html&gt;&lt;head/&gt;&lt;body&gt;&lt;p&gt;&lt;span style=&quot; font-size:9pt;&quot;&gt;Select the nature of the fluid, liquid or gas.&lt;/span&gt;&lt;/p&gt;&lt;/body&gt;&lt;/html&gt;</string>
          </property>
         </widget>
        </item>
        <item row="2" column="3">
         <spacer name="horizontalSpacer_7">
          <property name="orientation">
           <enum>Qt::Horizontal</enum>
          </property>
          <property name="sizeHint" stdset="0">
           <size>
            <width>40</width>
            <height>17</height>
           </size>
          </property>
         </spacer>
        </item>
        <item row="3" column="0">
         <widget class="QLabel" name="label_4">
          <property name="text">
           <string>Reference</string>
          </property>
         </widget>
        </item>
        <item row="3" column="1">
         <spacer name="horizontalSpacer_4">
          <property name="orientation">
           <enum>Qt::Horizontal</enum>
          </property>
          <property name="sizeHint" stdset="0">
           <size>
            <width>13</width>
            <height>20</height>
           </size>
          </property>
         </spacer>
        </item>
        <item row="3" column="2" colspan="2">
         <widget class="QLineEdit" name="lineEditReference"/>
        </item>
       </layout>
      </item>
      <item row="0" column="2">
       <spacer>
        <property name="orientation">
         <enum>Qt::Horizontal</enum>
        </property>
        <property name="sizeHint" stdset="0">
         <size>
          <width>53</width>
          <height>20</height>
         </size>
        </property>
       </spacer>
      </item>
     </layout>
    </widget>
   </item>
   <item row="5" column="0">
    <widget class="QGroupBox" name="groupBoxRho">
     <property name="toolTip">
      <string>&lt;html&gt;&lt;head/&gt;&lt;body&gt;&lt;p&gt;&lt;span style=&quot; font-size:9pt;&quot;&gt;Define the fluid density. It can be either constant, in which case the reference value must be completed, or variable and then the formula editor must be filled.&lt;/span&gt;&lt;/p&gt;&lt;p&gt;&lt;span style=&quot; font-size:9pt;&quot;&gt;(Code_Saturne key word: &lt;/span&gt;&lt;span style=&quot; font-size:9pt; font-weight:600;&quot;&gt;IROVAR&lt;/span&gt;&lt;span style=&quot; font-size:9pt;&quot;&gt;)&lt;/span&gt;&lt;/p&gt;&lt;/body&gt;&lt;/html&gt;</string>
     </property>
     <property name="title">
      <string>Density</string>
     </property>
     <layout class="QHBoxLayout">
      <property name="spacing">
       <number>6</number>
      </property>
      <property name="margin">
       <number>9</number>
      </property>
      <item>
       <spacer>
        <property name="orientation">
         <enum>Qt::Horizontal</enum>
        </property>
        <property name="sizeHint" stdset="0">
         <size>
          <width>53</width>
          <height>20</height>
         </size>
        </property>
       </spacer>
      </item>
      <item>
       <layout class="QVBoxLayout">
        <property name="spacing">
         <number>6</number>
        </property>
        <property name="margin">
         <number>0</number>
        </property>
        <item>
         <layout class="QHBoxLayout">
          <property name="spacing">
           <number>6</number>
          </property>
          <property name="margin">
           <number>0</number>
          </property>
          <item>
           <layout class="QHBoxLayout">
            <property name="spacing">
             <number>6</number>
            </property>
            <property name="margin">
             <number>0</number>
            </property>
            <item>
             <widget class="QComboBox" name="comboBoxRho">
              <property name="toolTip">
               <string>&lt;html&gt;&lt;head/&gt;&lt;body&gt;&lt;p&gt;&lt;span style=&quot; font-size:9pt;&quot;&gt;Fill the formula editor in case of a variable fluid density.&lt;/span&gt;&lt;/p&gt;&lt;/body&gt;&lt;/html&gt;</string>
              </property>
             </widget>
            </item>
            <item>
             <spacer>
              <property name="orientation">
               <enum>Qt::Horizontal</enum>
              </property>
              <property name="sizeHint" stdset="0">
               <size>
                <width>17</width>
                <height>17</height>
               </size>
              </property>
             </spacer>
            </item>
            <item>
             <widget class="QPushButton" name="pushButtonRho">
              <property name="toolTip">
               <string>&lt;html&gt;&lt;head/&gt;&lt;body&gt;&lt;p&gt;&lt;span style=&quot; font-size:9pt;&quot;&gt;Fill the formula editor in case of a variable fluid density.&lt;/span&gt;&lt;/p&gt;&lt;/body&gt;&lt;/html&gt;</string>
              </property>
              <property name="text">
               <string/>
              </property>
              <property name="icon">
               <iconset resource="resources_pages.qrc">
                <normaloff>:/new/prefix1/icons/22x22/edit-find-replace.png</normaloff>:/new/prefix1/icons/22x22/edit-find-replace.png</iconset>
              </property>
              <property name="iconSize">
               <size>
                <width>22</width>
                <height>22</height>
               </size>
              </property>
             </widget>
            </item>
           </layout>
          </item>
          <item>
           <spacer>
            <property name="orientation">
             <enum>Qt::Horizontal</enum>
            </property>
            <property name="sizeHint" stdset="0">
             <size>
              <width>13</width>
              <height>20</height>
             </size>
            </property>
           </spacer>
          </item>
         </layout>
        </item>
        <item>
         <layout class="QHBoxLayout">
          <property name="spacing">
           <number>6</number>
          </property>
          <property name="margin">
           <number>0</number>
          </property>
          <item>
           <widget class="QLabel" name="labelRho">
            <property name="toolTip">
             <string>&lt;html&gt;&lt;head/&gt;&lt;body&gt;&lt;p&gt;&lt;span style=&quot; font-size:9pt;&quot;&gt;Define the density reference value in kg/m&lt;/span&gt;&lt;span style=&quot; font-size:9pt; vertical-align:super;&quot;&gt;3&lt;/span&gt;&lt;span style=&quot; font-size:9pt;&quot;&gt;. If the density is variable, this value will be used for the initialization.&lt;/span&gt;&lt;/p&gt;&lt;p&gt;&lt;span style=&quot; font-size:9pt;&quot;&gt;(Code_Saturne key word: &lt;/span&gt;&lt;span style=&quot; font-size:9pt; font-weight:600;&quot;&gt;RO0&lt;/span&gt;&lt;span style=&quot; font-size:9pt;&quot;&gt;)&lt;/span&gt;&lt;/p&gt;&lt;/body&gt;&lt;/html&gt;</string>
            </property>
            <property name="text">
             <string>Reference</string>
            </property>
           </widget>
          </item>
          <item>
           <spacer>
            <property name="orientation">
             <enum>Qt::Horizontal</enum>
            </property>
            <property name="sizeHint" stdset="0">
             <size>
              <width>16</width>
              <height>20</height>
             </size>
            </property>
           </spacer>
          </item>
          <item>
           <widget class="QLabel" name="labelVarRho">
            <property name="font">
             <font>
              <family>Symbol</family>
             </font>
            </property>
            <property name="toolTip">
             <string>&lt;html&gt;&lt;head/&gt;&lt;body&gt;&lt;p&gt;&lt;span style=&quot; font-size:9pt;&quot;&gt;Define the density reference value in kg/m&lt;/span&gt;&lt;span style=&quot; font-size:9pt; vertical-align:super;&quot;&gt;3&lt;/span&gt;&lt;span style=&quot; font-size:9pt;&quot;&gt;. If the density is variable, this value will be used for the initialization.&lt;/span&gt;&lt;/p&gt;&lt;p&gt;&lt;span style=&quot; font-size:9pt;&quot;&gt;(Code_Saturne key word: &lt;/span&gt;&lt;span style=&quot; font-size:9pt; font-weight:600;&quot;&gt;RO0&lt;/span&gt;&lt;span style=&quot; font-size:9pt;&quot;&gt;)&lt;/span&gt;&lt;/p&gt;&lt;/body&gt;&lt;/html&gt;</string>
            </property>
            <property name="text">
             <string>r</string>
            </property>
           </widget>
          </item>
          <item>
           <widget class="QLineEdit" name="lineEditRho">
            <property name="toolTip">
             <string>&lt;html&gt;&lt;head/&gt;&lt;body&gt;&lt;p&gt;&lt;span style=&quot; font-size:9pt;&quot;&gt;Define the density reference value in kg/m&lt;/span&gt;&lt;span style=&quot; font-size:9pt; vertical-align:super;&quot;&gt;3&lt;/span&gt;&lt;span style=&quot; font-size:9pt;&quot;&gt;. If the density is variable, this value will be used for the initialization.&lt;/span&gt;&lt;/p&gt;&lt;p&gt;&lt;span style=&quot; font-size:9pt;&quot;&gt;(Code_Saturne key word: &lt;/span&gt;&lt;span style=&quot; font-size:9pt; font-weight:600;&quot;&gt;RO0&lt;/span&gt;&lt;span style=&quot; font-size:9pt;&quot;&gt;)&lt;/span&gt;&lt;/p&gt;&lt;/body&gt;&lt;/html&gt;</string>
            </property>
           </widget>
          </item>
          <item>
           <widget class="QLabel" name="labelUnitRho">
            <property name="toolTip">
             <string>&lt;html&gt;&lt;head/&gt;&lt;body&gt;&lt;p&gt;&lt;span style=&quot; font-size:9pt;&quot;&gt;Define the density reference value in kg/m&lt;/span&gt;&lt;span style=&quot; font-size:9pt; vertical-align:super;&quot;&gt;3&lt;/span&gt;&lt;span style=&quot; font-size:9pt;&quot;&gt;. If the density is variable, this value will be used for the initialization.&lt;/span&gt;&lt;/p&gt;&lt;p&gt;&lt;span style=&quot; font-size:9pt;&quot;&gt;(Code_Saturne key word: &lt;/span&gt;&lt;span style=&quot; font-size:9pt; font-weight:600;&quot;&gt;RO0&lt;/span&gt;&lt;span style=&quot; font-size:9pt;&quot;&gt;)&lt;/span&gt;&lt;/p&gt;&lt;/body&gt;&lt;/html&gt;</string>
            </property>
            <property name="text">
             <string>kg/m&lt;sup&gt;3&lt;/sup&gt;</string>
            </property>
           </widget>
          </item>
         </layout>
        </item>
       </layout>
      </item>
      <item>
       <spacer>
        <property name="orientation">
         <enum>Qt::Horizontal</enum>
        </property>
        <property name="sizeHint" stdset="0">
         <size>
          <width>53</width>
          <height>20</height>
         </size>
        </property>
       </spacer>
      </item>
     </layout>
    </widget>
   </item>
   <item row="6" column="0">
    <widget class="QGroupBox" name="groupBoxMu">
     <property name="toolTip">
      <string>&lt;html&gt;&lt;head/&gt;&lt;body&gt;&lt;p&gt;&lt;span style=&quot; font-size:9pt;&quot;&gt;Define the fluid viscosity. It can be either constant, in which case the reference value must be completed, or variable and then the formula editor must be filled.&lt;/span&gt;&lt;/p&gt;&lt;p&gt;&lt;span style=&quot; font-size:9pt;&quot;&gt;(Code_Saturne key word: &lt;/span&gt;&lt;span style=&quot; font-size:9pt; font-weight:600;&quot;&gt;IVIVAR&lt;/span&gt;&lt;span style=&quot; font-size:9pt;&quot;&gt;)&lt;/span&gt;&lt;/p&gt;&lt;/body&gt;&lt;/html&gt;</string>
     </property>
     <property name="title">
      <string>Viscosity</string>
     </property>
     <layout class="QHBoxLayout">
      <property name="spacing">
       <number>6</number>
      </property>
      <property name="margin">
       <number>9</number>
      </property>
      <item>
       <spacer>
        <property name="orientation">
         <enum>Qt::Horizontal</enum>
        </property>
        <property name="sizeHint" stdset="0">
         <size>
          <width>21</width>
          <height>20</height>
         </size>
        </property>
       </spacer>
      </item>
      <item>
       <layout class="QVBoxLayout">
        <property name="spacing">
         <number>6</number>
        </property>
        <property name="margin">
         <number>0</number>
        </property>
        <item>
         <layout class="QHBoxLayout">
          <property name="spacing">
           <number>6</number>
          </property>
          <property name="margin">
           <number>0</number>
          </property>
          <item>
           <layout class="QHBoxLayout">
            <property name="spacing">
             <number>6</number>
            </property>
            <property name="margin">
             <number>0</number>
            </property>
            <item>
             <widget class="QComboBox" name="comboBoxMu">
              <property name="toolTip">
               <string>&lt;html&gt;&lt;head/&gt;&lt;body&gt;&lt;p&gt;&lt;span style=&quot; font-size:9pt;&quot;&gt;Fill the formula editor in case of a variable fluid viscosity.&lt;/span&gt;&lt;/p&gt;&lt;/body&gt;&lt;/html&gt;</string>
              </property>
             </widget>
            </item>
            <item>
             <spacer>
              <property name="orientation">
               <enum>Qt::Horizontal</enum>
              </property>
              <property name="sizeHint" stdset="0">
               <size>
                <width>21</width>
                <height>20</height>
               </size>
              </property>
             </spacer>
            </item>
            <item>
             <widget class="QPushButton" name="pushButtonMu">
              <property name="toolTip">
               <string>&lt;html&gt;&lt;head/&gt;&lt;body&gt;&lt;p&gt;&lt;span style=&quot; font-size:9pt;&quot;&gt;Fill the formula editor in case of a variable fluid viscosity.&lt;/span&gt;&lt;/p&gt;&lt;/body&gt;&lt;/html&gt;</string>
              </property>
              <property name="text">
               <string/>
              </property>
              <property name="icon">
               <iconset resource="resources_pages.qrc">
                <normaloff>:/new/prefix1/icons/22x22/edit-find-replace.png</normaloff>:/new/prefix1/icons/22x22/edit-find-replace.png</iconset>
              </property>
              <property name="iconSize">
               <size>
                <width>22</width>
                <height>22</height>
               </size>
              </property>
             </widget>
            </item>
           </layout>
          </item>
          <item>
           <spacer>
            <property name="orientation">
             <enum>Qt::Horizontal</enum>
            </property>
            <property name="sizeHint" stdset="0">
             <size>
              <width>13</width>
              <height>20</height>
             </size>
            </property>
           </spacer>
          </item>
         </layout>
        </item>
        <item>
         <layout class="QHBoxLayout">
          <property name="spacing">
           <number>6</number>
          </property>
          <property name="margin">
           <number>0</number>
          </property>
          <item>
           <widget class="QLabel" name="labelMu">
            <property name="toolTip">
             <string>&lt;html&gt;&lt;head/&gt;&lt;body&gt;&lt;p&gt;&lt;span style=&quot; font-size:9pt;&quot;&gt;Define the viscosity reference value in Pa.s. If the viscosity is variable, this value will be used for the initialization.&lt;/span&gt;&lt;/p&gt;&lt;p&gt;&lt;span style=&quot; font-size:9pt;&quot;&gt;(Code_Saturne key word: &lt;/span&gt;&lt;span style=&quot; font-size:9pt; font-weight:600;&quot;&gt;VISCL0&lt;/span&gt;&lt;span style=&quot; font-size:9pt;&quot;&gt;)&lt;/span&gt;&lt;/p&gt;&lt;/body&gt;&lt;/html&gt;</string>
            </property>
            <property name="text">
             <string>Reference</string>
            </property>
           </widget>
          </item>
          <item>
           <spacer>
            <property name="orientation">
             <enum>Qt::Horizontal</enum>
            </property>
            <property name="sizeHint" stdset="0">
             <size>
              <width>16</width>
              <height>20</height>
             </size>
            </property>
           </spacer>
          </item>
          <item>
           <widget class="QLabel" name="labelVarMu">
            <property name="font">
             <font>
              <family>Symbol</family>
             </font>
            </property>
            <property name="toolTip">
             <string>&lt;html&gt;&lt;head/&gt;&lt;body&gt;&lt;p&gt;&lt;span style=&quot; font-size:9pt;&quot;&gt;Define the viscosity reference value in Pa.s. If the viscosity is variable, this value will be used for the initialization.&lt;/span&gt;&lt;/p&gt;&lt;p&gt;&lt;span style=&quot; font-size:9pt;&quot;&gt;(Code_Saturne key word: &lt;/span&gt;&lt;span style=&quot; font-size:9pt; font-weight:600;&quot;&gt;VISCL0&lt;/span&gt;&lt;span style=&quot; font-size:9pt;&quot;&gt;)&lt;/span&gt;&lt;/p&gt;&lt;/body&gt;&lt;/html&gt;</string>
            </property>
            <property name="text">
             <string>m</string>
            </property>
           </widget>
          </item>
          <item>
           <widget class="QLineEdit" name="lineEditMu">
            <property name="toolTip">
             <string>&lt;html&gt;&lt;head/&gt;&lt;body&gt;&lt;p&gt;&lt;span style=&quot; font-size:9pt;&quot;&gt;Define the viscosity reference value in Pa.s. If the viscosity is variable, this value will be used for the initialization.&lt;/span&gt;&lt;/p&gt;&lt;p&gt;&lt;span style=&quot; font-size:9pt;&quot;&gt;(Code_Saturne key word: &lt;/span&gt;&lt;span style=&quot; font-size:9pt; font-weight:600;&quot;&gt;VISCL0&lt;/span&gt;&lt;span style=&quot; font-size:9pt;&quot;&gt;)&lt;/span&gt;&lt;/p&gt;&lt;/body&gt;&lt;/html&gt;</string>
            </property>
           </widget>
          </item>
          <item>
           <widget class="QLabel" name="labelUnitMu">
            <property name="toolTip">
             <string>&lt;html&gt;&lt;head/&gt;&lt;body&gt;&lt;p&gt;&lt;span style=&quot; font-size:9pt;&quot;&gt;Define the viscosity reference value in Pa.s. If the viscosity is variable, this value will be used for the initialization.&lt;/span&gt;&lt;/p&gt;&lt;p&gt;&lt;span style=&quot; font-size:9pt;&quot;&gt;(Code_Saturne key word: &lt;/span&gt;&lt;span style=&quot; font-size:9pt; font-weight:600;&quot;&gt;VISCL0&lt;/span&gt;&lt;span style=&quot; font-size:9pt;&quot;&gt;)&lt;/span&gt;&lt;/p&gt;&lt;/body&gt;&lt;/html&gt;</string>
            </property>
            <property name="text">
             <string>Pa.s</string>
            </property>
           </widget>
          </item>
         </layout>
        </item>
       </layout>
      </item>
      <item>
       <spacer>
        <property name="orientation">
         <enum>Qt::Horizontal</enum>
        </property>
        <property name="sizeHint" stdset="0">
         <size>
          <width>21</width>
          <height>20</height>
         </size>
        </property>
       </spacer>
      </item>
     </layout>
    </widget>
   </item>
   <item row="7" column="0">
    <widget class="QGroupBox" name="groupBoxCp">
     <property name="toolTip">
      <string>&lt;html&gt;&lt;head/&gt;&lt;body&gt;&lt;p&gt;&lt;span style=&quot; font-size:9pt;&quot;&gt;Define the fluid specific heat. It can be either constant, in which case the reference value must be completed, or variable and then the formula editor must be filled.&lt;/span&gt;&lt;/p&gt;&lt;p&gt;&lt;span style=&quot; font-size:9pt;&quot;&gt;(Code_Saturne key word: &lt;/span&gt;&lt;span style=&quot; font-size:9pt; font-weight:600;&quot;&gt;ICP&lt;/span&gt;&lt;span style=&quot; font-size:9pt;&quot;&gt;)&lt;/span&gt;&lt;/p&gt;&lt;/body&gt;&lt;/html&gt;</string>
     </property>
     <property name="title">
      <string>Specific heat</string>
     </property>
     <layout class="QHBoxLayout">
      <property name="spacing">
       <number>6</number>
      </property>
      <property name="margin">
       <number>9</number>
      </property>
      <item>
       <spacer>
        <property name="orientation">
         <enum>Qt::Horizontal</enum>
        </property>
        <property name="sizeHint" stdset="0">
         <size>
          <width>50</width>
          <height>22</height>
         </size>
        </property>
       </spacer>
      </item>
      <item>
       <layout class="QVBoxLayout">
        <property name="spacing">
         <number>6</number>
        </property>
        <property name="margin">
         <number>0</number>
        </property>
        <item>
         <layout class="QHBoxLayout">
          <property name="spacing">
           <number>6</number>
          </property>
          <property name="margin">
           <number>0</number>
          </property>
          <item>
           <layout class="QHBoxLayout">
            <property name="spacing">
             <number>6</number>
            </property>
            <property name="margin">
             <number>0</number>
            </property>
            <item>
             <widget class="QComboBox" name="comboBoxCp">
              <property name="toolTip">
               <string>&lt;html&gt;&lt;head/&gt;&lt;body&gt;&lt;p&gt;&lt;span style=&quot; font-size:9pt;&quot;&gt;Fill the formula editor in case of a variable fluid viscosity.&lt;/span&gt;&lt;/p&gt;&lt;/body&gt;&lt;/html&gt;</string>
              </property>
             </widget>
            </item>
            <item>
             <spacer>
              <property name="orientation">
               <enum>Qt::Horizontal</enum>
              </property>
              <property name="sizeHint" stdset="0">
               <size>
                <width>13</width>
                <height>22</height>
               </size>
              </property>
             </spacer>
            </item>
            <item>
             <widget class="QPushButton" name="pushButtonCp">
              <property name="toolTip">
               <string>&lt;html&gt;&lt;head/&gt;&lt;body&gt;&lt;p&gt;&lt;span style=&quot; font-size:9pt;&quot;&gt;Define the fluid specific heat. It can be either constant, in which case the reference value must be completed, or variable and then the formula editor must be filled.&lt;/span&gt;&lt;/p&gt;&lt;p&gt;&lt;span style=&quot; font-size:9pt;&quot;&gt;(Code_Saturne key word: &lt;/span&gt;&lt;span style=&quot; font-size:9pt; font-weight:600;&quot;&gt;ICP&lt;/span&gt;&lt;span style=&quot; font-size:9pt;&quot;&gt;)&lt;/span&gt;&lt;/p&gt;&lt;/body&gt;&lt;/html&gt;</string>
              </property>
              <property name="text">
               <string/>
              </property>
              <property name="icon">
               <iconset resource="resources_pages.qrc">
                <normaloff>:/new/prefix1/icons/22x22/edit-find-replace.png</normaloff>:/new/prefix1/icons/22x22/edit-find-replace.png</iconset>
              </property>
              <property name="iconSize">
               <size>
                <width>22</width>
                <height>22</height>
               </size>
              </property>
             </widget>
            </item>
           </layout>
          </item>
          <item>
           <spacer>
            <property name="orientation">
             <enum>Qt::Horizontal</enum>
            </property>
            <property name="sizeHint" stdset="0">
             <size>
              <width>17</width>
              <height>17</height>
             </size>
            </property>
           </spacer>
          </item>
         </layout>
        </item>
        <item>
         <layout class="QHBoxLayout">
          <property name="spacing">
           <number>6</number>
          </property>
          <property name="margin">
           <number>0</number>
          </property>
          <item>
           <widget class="QLabel" name="labelCp">
            <property name="toolTip">
             <string>&lt;html&gt;&lt;head/&gt;&lt;body&gt;&lt;p&gt;&lt;span style=&quot; font-size:9pt;&quot;&gt;Define the specific heat reference value in J/kg/K. If the specific heat is variable, this  value will be used for the initialization.&lt;/span&gt;&lt;/p&gt;&lt;p&gt;&lt;span style=&quot; font-size:9pt;&quot;&gt;(Code_Saturne key word: &lt;/span&gt;&lt;span style=&quot; font-size:9pt; font-weight:600;&quot;&gt;CP0&lt;/span&gt;&lt;span style=&quot; font-size:9pt;&quot;&gt;)&lt;/span&gt;&lt;/p&gt;&lt;/body&gt;&lt;/html&gt;</string>
            </property>
            <property name="text">
             <string>Reference</string>
            </property>
           </widget>
          </item>
          <item>
           <spacer>
            <property name="orientation">
             <enum>Qt::Horizontal</enum>
            </property>
            <property name="sizeHint" stdset="0">
             <size>
              <width>13</width>
              <height>22</height>
             </size>
            </property>
           </spacer>
          </item>
          <item>
           <widget class="QLabel" name="labelVarCp">
            <property name="toolTip">
             <string>&lt;html&gt;&lt;head/&gt;&lt;body&gt;&lt;p&gt;&lt;span style=&quot; font-size:9pt;&quot;&gt;Define the specific heat reference value in J/kg/K. If the specific heat is variable, this  value will be used for the initialization.&lt;/span&gt;&lt;/p&gt;&lt;p&gt;&lt;span style=&quot; font-size:9pt;&quot;&gt;(Code_Saturne key word: &lt;/span&gt;&lt;span style=&quot; font-size:9pt; font-weight:600;&quot;&gt;CP0&lt;/span&gt;&lt;span style=&quot; font-size:9pt;&quot;&gt;)&lt;/span&gt;&lt;/p&gt;&lt;/body&gt;&lt;/html&gt;</string>
            </property>
            <property name="text">
             <string>Cp</string>
            </property>
           </widget>
          </item>
          <item>
           <widget class="QLineEdit" name="lineEditCp">
            <property name="toolTip">
             <string>&lt;html&gt;&lt;head/&gt;&lt;body&gt;&lt;p&gt;&lt;span style=&quot; font-size:9pt;&quot;&gt;Define the specific heat reference value in J/kg/K. If the specific heat is variable, this  value will be used for the initialization.&lt;/span&gt;&lt;/p&gt;&lt;p&gt;&lt;span style=&quot; font-size:9pt;&quot;&gt;(Code_Saturne key word: &lt;/span&gt;&lt;span style=&quot; font-size:9pt; font-weight:600;&quot;&gt;CP0&lt;/span&gt;&lt;span style=&quot; font-size:9pt;&quot;&gt;)&lt;/span&gt;&lt;/p&gt;&lt;/body&gt;&lt;/html&gt;</string>
            </property>
           </widget>
          </item>
          <item>
           <widget class="QLabel" name="labelUnitCp">
            <property name="toolTip">
             <string>&lt;html&gt;&lt;head/&gt;&lt;body&gt;&lt;p&gt;&lt;span style=&quot; font-size:9pt;&quot;&gt;Define the specific heat reference value in J/kg/K. If the specific heat is variable, this  value will be used for the initialization.&lt;/span&gt;&lt;/p&gt;&lt;p&gt;&lt;span style=&quot; font-size:9pt;&quot;&gt;(Code_Saturne key word: &lt;/span&gt;&lt;span style=&quot; font-size:9pt; font-weight:600;&quot;&gt;CP0&lt;/span&gt;&lt;span style=&quot; font-size:9pt;&quot;&gt;)&lt;/span&gt;&lt;/p&gt;&lt;/body&gt;&lt;/html&gt;</string>
            </property>
            <property name="text">
             <string>J/kg/K</string>
            </property>
           </widget>
          </item>
         </layout>
        </item>
       </layout>
      </item>
      <item>
       <spacer>
        <property name="orientation">
         <enum>Qt::Horizontal</enum>
        </property>
        <property name="sizeHint" stdset="0">
         <size>
          <width>50</width>
          <height>22</height>
         </size>
        </property>
       </spacer>
      </item>
     </layout>
    </widget>
   </item>
   <item row="8" column="0">
    <widget class="QGroupBox" name="groupBoxViscv0">
     <property name="toolTip">
      <string>&lt;html&gt;&lt;head/&gt;&lt;body&gt;&lt;p&gt;&lt;span style=&quot; font-size:9pt;&quot;&gt;Define the fluid volumic viscosity. It can be either constant, in which case the reference value must be completed, or variable and then the formula editor must be filled. Useful only with compressible flows.&lt;/span&gt;&lt;/p&gt;&lt;p&gt;&lt;span style=&quot; font-size:9pt;&quot;&gt;(Code_Saturne key word: &lt;/span&gt;&lt;span style=&quot; font-size:9pt; font-weight:600;&quot;&gt;IVISCV&lt;/span&gt;&lt;span style=&quot; font-size:9pt;&quot;&gt;)&lt;/span&gt;&lt;/p&gt;&lt;/body&gt;&lt;/html&gt;</string>
     </property>
     <property name="title">
      <string>Volumic viscosity</string>
     </property>
     <layout class="QHBoxLayout">
      <property name="spacing">
       <number>6</number>
      </property>
      <property name="margin">
       <number>9</number>
      </property>
      <item>
       <spacer>
        <property name="orientation">
         <enum>Qt::Horizontal</enum>
        </property>
        <property name="sizeHint" stdset="0">
         <size>
          <width>50</width>
          <height>22</height>
         </size>
        </property>
       </spacer>
      </item>
      <item>
       <layout class="QVBoxLayout">
        <property name="spacing">
         <number>6</number>
        </property>
        <property name="margin">
         <number>0</number>
        </property>
        <item>
         <layout class="QHBoxLayout">
          <property name="spacing">
           <number>6</number>
          </property>
          <property name="margin">
           <number>0</number>
          </property>
          <item>
           <layout class="QHBoxLayout">
            <property name="spacing">
             <number>6</number>
            </property>
            <property name="margin">
             <number>0</number>
            </property>
            <item>
             <widget class="QComboBox" name="comboBoxViscv0">
              <property name="toolTip">
               <string>&lt;html&gt;&lt;head/&gt;&lt;body&gt;&lt;p&gt;&lt;span style=&quot; font-size:9pt;&quot;&gt;Fill the formula editor in case of a variable fluid volumic viscosity.&lt;/span&gt;&lt;/p&gt;&lt;/body&gt;&lt;/html&gt;</string>
              </property>
             </widget>
            </item>
            <item>
             <spacer>
              <property name="orientation">
               <enum>Qt::Horizontal</enum>
              </property>
              <property name="sizeHint" stdset="0">
               <size>
                <width>13</width>
                <height>22</height>
               </size>
              </property>
             </spacer>
            </item>
            <item>
             <widget class="QPushButton" name="pushButtonViscv0">
              <property name="toolTip">
               <string>&lt;html&gt;&lt;head/&gt;&lt;body&gt;&lt;p&gt;&lt;span style=&quot; font-size:9pt;&quot;&gt;Fill the formula editor in case of a variable fluid volumic viscosity.&lt;/span&gt;&lt;/p&gt;&lt;/body&gt;&lt;/html&gt;</string>
              </property>
              <property name="text">
               <string/>
              </property>
              <property name="icon">
               <iconset resource="resources_pages.qrc">
                <normaloff>:/new/prefix1/icons/22x22/edit-find-replace.png</normaloff>:/new/prefix1/icons/22x22/edit-find-replace.png</iconset>
              </property>
              <property name="iconSize">
               <size>
                <width>22</width>
                <height>22</height>
               </size>
              </property>
             </widget>
            </item>
           </layout>
          </item>
          <item>
           <spacer>
            <property name="orientation">
             <enum>Qt::Horizontal</enum>
            </property>
            <property name="sizeHint" stdset="0">
             <size>
              <width>17</width>
              <height>17</height>
             </size>
            </property>
           </spacer>
          </item>
         </layout>
        </item>
        <item>
         <layout class="QHBoxLayout">
          <property name="spacing">
           <number>6</number>
          </property>
          <property name="margin">
           <number>0</number>
          </property>
          <item>
           <widget class="QLabel" name="labelViscv0">
            <property name="toolTip">
             <string>&lt;html&gt;&lt;head/&gt;&lt;body&gt;&lt;p&gt;&lt;span style=&quot; font-size:9pt;&quot;&gt;Define the volumic viscosity reference value in kg/(m/s). If the volumic viscosity is variable, this value will be used for the initialization.&lt;/span&gt;&lt;/p&gt;&lt;p&gt;&lt;span style=&quot; font-size:9pt;&quot;&gt;(Code_Saturne key word: &lt;/span&gt;&lt;span style=&quot; font-size:9pt; font-weight:600;&quot;&gt;VISCV0&lt;/span&gt;&lt;span style=&quot; font-size:9pt;&quot;&gt;)&lt;/span&gt;&lt;/p&gt;&lt;/body&gt;&lt;/html&gt;</string>
            </property>
            <property name="text">
             <string>Reference</string>
            </property>
           </widget>
          </item>
          <item>
           <spacer>
            <property name="orientation">
             <enum>Qt::Horizontal</enum>
            </property>
            <property name="sizeHint" stdset="0">
             <size>
              <width>13</width>
              <height>22</height>
             </size>
            </property>
           </spacer>
          </item>
          <item>
           <widget class="QLabel" name="labelVarViscv0">
            <property name="toolTip">
             <string>&lt;html&gt;&lt;head/&gt;&lt;body&gt;&lt;p&gt;&lt;span style=&quot; font-size:9pt;&quot;&gt;Define the volumic viscosity reference value in kg/(m/s). If the volumic viscosity is variable, this value will be used for the initialization.&lt;/span&gt;&lt;/p&gt;&lt;p&gt;&lt;span style=&quot; font-size:9pt;&quot;&gt;(Code_Saturne key word: &lt;/span&gt;&lt;span style=&quot; font-size:9pt; font-weight:600;&quot;&gt;VISCV0&lt;/span&gt;&lt;span style=&quot; font-size:9pt;&quot;&gt;)&lt;/span&gt;&lt;/p&gt;&lt;/body&gt;&lt;/html&gt;</string>
            </property>
            <property name="text">
             <string>Viscv0</string>
            </property>
           </widget>
          </item>
          <item>
           <widget class="QLineEdit" name="lineEditViscv0">
            <property name="toolTip">
             <string>&lt;html&gt;&lt;head/&gt;&lt;body&gt;&lt;p&gt;&lt;span style=&quot; font-size:9pt;&quot;&gt;Define the volumic viscosity reference value in kg/(m/s). If the volumic viscosity is variable, this value will be used for the initialization.&lt;/span&gt;&lt;/p&gt;&lt;p&gt;&lt;span style=&quot; font-size:9pt;&quot;&gt;(Code_Saturne key word: &lt;/span&gt;&lt;span style=&quot; font-size:9pt; font-weight:600;&quot;&gt;VISCV0&lt;/span&gt;&lt;span style=&quot; font-size:9pt;&quot;&gt;)&lt;/span&gt;&lt;/p&gt;&lt;/body&gt;&lt;/html&gt;</string>
            </property>
           </widget>
          </item>
          <item>
           <widget class="QLabel" name="labelUnitViscv0">
            <property name="toolTip">
             <string>&lt;html&gt;&lt;head/&gt;&lt;body&gt;&lt;p&gt;&lt;span style=&quot; font-size:9pt;&quot;&gt;Define the volumic viscosity reference value in kg/(m/s). If the volumic viscosity is variable, this value will be used for the initialization.&lt;/span&gt;&lt;/p&gt;&lt;p&gt;&lt;span style=&quot; font-size:9pt;&quot;&gt;(Code_Saturne key word: &lt;/span&gt;&lt;span style=&quot; font-size:9pt; font-weight:600;&quot;&gt;VISCV0&lt;/span&gt;&lt;span style=&quot; font-size:9pt;&quot;&gt;)&lt;/span&gt;&lt;/p&gt;&lt;/body&gt;&lt;/html&gt;</string>
            </property>
            <property name="text">
             <string>kg/(m.s)</string>
            </property>
           </widget>
          </item>
         </layout>
        </item>
       </layout>
      </item>
      <item>
       <spacer>
        <property name="orientation">
         <enum>Qt::Horizontal</enum>
        </property>
        <property name="sizeHint" stdset="0">
         <size>
          <width>50</width>
          <height>22</height>
         </size>
        </property>
       </spacer>
      </item>
     </layout>
    </widget>
   </item>
   <item row="9" column="0">
    <widget class="QGroupBox" name="groupBoxAl">
     <property name="toolTip">
      <string>&lt;html&gt;&lt;head/&gt;&lt;body&gt;&lt;p&gt;&lt;span style=&quot; font-size:9pt;&quot;&gt;Define the fluid thermal conductivity. It can be either constant, in which case the reference value must be completed, or variable and then the formula editor must be filled. Useful only with a thermal scalar.&lt;/span&gt;&lt;/p&gt;&lt;/body&gt;&lt;/html&gt;</string>
     </property>
     <property name="title">
      <string>Thermal conductivity</string>
     </property>
     <layout class="QHBoxLayout">
      <property name="spacing">
       <number>6</number>
      </property>
      <property name="margin">
       <number>9</number>
      </property>
      <item>
       <spacer>
        <property name="orientation">
         <enum>Qt::Horizontal</enum>
        </property>
        <property name="sizeHint" stdset="0">
         <size>
          <width>53</width>
          <height>22</height>
         </size>
        </property>
       </spacer>
      </item>
      <item>
       <layout class="QVBoxLayout">
        <property name="spacing">
         <number>6</number>
        </property>
        <property name="margin">
         <number>0</number>
        </property>
        <item>
         <layout class="QHBoxLayout">
          <property name="spacing">
           <number>6</number>
          </property>
          <property name="margin">
           <number>0</number>
          </property>
          <item>
           <layout class="QHBoxLayout">
            <property name="spacing">
             <number>6</number>
            </property>
            <property name="margin">
             <number>0</number>
            </property>
            <item>
             <widget class="QComboBox" name="comboBoxAl">
              <property name="toolTip">
               <string>&lt;html&gt;&lt;head/&gt;&lt;body&gt;&lt;p&gt;&lt;span style=&quot; font-size:9pt;&quot;&gt;Fill the formula editor in case of a variable fluid thermal conductivity.&lt;/span&gt;&lt;/p&gt;&lt;/body&gt;&lt;/html&gt;</string>
              </property>
             </widget>
            </item>
            <item>
             <spacer>
              <property name="orientation">
               <enum>Qt::Horizontal</enum>
              </property>
              <property name="sizeHint" stdset="0">
               <size>
                <width>13</width>
                <height>22</height>
               </size>
              </property>
             </spacer>
            </item>
            <item>
             <widget class="QPushButton" name="pushButtonAl">
              <property name="toolTip">
               <string>&lt;html&gt;&lt;head/&gt;&lt;body&gt;&lt;p&gt;&lt;span style=&quot; font-size:9pt;&quot;&gt;Fill the formula editor in case of a variable fluid thermal conductivity.&lt;/span&gt;&lt;/p&gt;&lt;/body&gt;&lt;/html&gt;</string>
              </property>
              <property name="text">
               <string/>
              </property>
              <property name="icon">
               <iconset resource="resources_pages.qrc">
                <normaloff>:/new/prefix1/icons/22x22/edit-find-replace.png</normaloff>:/new/prefix1/icons/22x22/edit-find-replace.png</iconset>
              </property>
              <property name="iconSize">
               <size>
                <width>22</width>
                <height>22</height>
               </size>
              </property>
             </widget>
            </item>
           </layout>
          </item>
          <item>
           <spacer>
            <property name="orientation">
             <enum>Qt::Horizontal</enum>
            </property>
            <property name="sizeHint" stdset="0">
             <size>
              <width>13</width>
              <height>20</height>
             </size>
            </property>
           </spacer>
          </item>
         </layout>
        </item>
        <item>
         <layout class="QHBoxLayout">
          <property name="spacing">
           <number>6</number>
          </property>
          <property name="margin">
           <number>0</number>
          </property>
          <item>
           <widget class="QLabel" name="labelAl">
            <property name="toolTip">
             <string>&lt;html&gt;&lt;head/&gt;&lt;body&gt;&lt;p&gt;&lt;span style=&quot; font-size:9pt;&quot;&gt;Define the thermal conductivity reference value in W/m/K. If the thermal conductivity is variable, this value will be used for the initialization.&lt;/span&gt;&lt;/p&gt;&lt;p&gt;&lt;span style=&quot; font-size:9pt;&quot;&gt;(Code_Saturne key word: &lt;/span&gt;&lt;span style=&quot; font-size:9pt; font-weight:600;&quot;&gt;VISCL0&lt;/span&gt;&lt;span style=&quot; font-size:9pt;&quot;&gt;)&lt;/span&gt;&lt;/p&gt;&lt;/body&gt;&lt;/html&gt;</string>
            </property>
            <property name="text">
             <string>Reference</string>
            </property>
           </widget>
          </item>
          <item>
           <spacer>
            <property name="orientation">
             <enum>Qt::Horizontal</enum>
            </property>
            <property name="sizeHint" stdset="0">
             <size>
              <width>13</width>
              <height>22</height>
             </size>
            </property>
           </spacer>
          </item>
          <item>
           <widget class="QLabel" name="labelVarAl">
            <property name="font">
             <font>
              <family>Symbol</family>
             </font>
            </property>
            <property name="toolTip">
             <string>&lt;html&gt;&lt;head/&gt;&lt;body&gt;&lt;p&gt;&lt;span style=&quot; font-size:9pt;&quot;&gt;Define the thermal conductivity reference value in W/m/K. If the thermal conductivity is variable, this value will be used for the initialization.&lt;/span&gt;&lt;/p&gt;&lt;p&gt;&lt;span style=&quot; font-size:9pt;&quot;&gt;(Code_Saturne key word: &lt;/span&gt;&lt;span style=&quot; font-size:9pt; font-weight:600;&quot;&gt;VISCL0&lt;/span&gt;&lt;span style=&quot; font-size:9pt;&quot;&gt;)&lt;/span&gt;&lt;/p&gt;&lt;/body&gt;&lt;/html&gt;</string>
            </property>
            <property name="text">
             <string>l</string>
            </property>
           </widget>
          </item>
          <item>
           <widget class="QLineEdit" name="lineEditAl">
            <property name="toolTip">
             <string>&lt;html&gt;&lt;head/&gt;&lt;body&gt;&lt;p&gt;&lt;span style=&quot; font-size:9pt;&quot;&gt;Define the thermal conductivity reference value in W/m/K. If the thermal conductivity is variable, this value will be used for the initialization.&lt;/span&gt;&lt;/p&gt;&lt;p&gt;&lt;span style=&quot; font-size:9pt;&quot;&gt;(Code_Saturne key word: &lt;/span&gt;&lt;span style=&quot; font-size:9pt; font-weight:600;&quot;&gt;VISCL0&lt;/span&gt;&lt;span style=&quot; font-size:9pt;&quot;&gt;)&lt;/span&gt;&lt;/p&gt;&lt;/body&gt;&lt;/html&gt;</string>
            </property>
           </widget>
          </item>
          <item>
           <widget class="QLabel" name="labelUnitAl">
            <property name="toolTip">
             <string>&lt;html&gt;&lt;head/&gt;&lt;body&gt;&lt;p&gt;&lt;span style=&quot; font-size:9pt;&quot;&gt;Define the thermal conductivity reference value in W/m/K. If the thermal conductivity is variable, this value will be used for the initialization.&lt;/span&gt;&lt;/p&gt;&lt;p&gt;&lt;span style=&quot; font-size:9pt;&quot;&gt;(Code_Saturne key word: &lt;/span&gt;&lt;span style=&quot; font-size:9pt; font-weight:600;&quot;&gt;VISCL0&lt;/span&gt;&lt;span style=&quot; font-size:9pt;&quot;&gt;)&lt;/span&gt;&lt;/p&gt;&lt;/body&gt;&lt;/html&gt;</string>
            </property>
            <property name="text">
             <string>W/m/K</string>
            </property>
           </widget>
          </item>
         </layout>
        </item>
       </layout>
      </item>
      <item>
       <spacer>
        <property name="orientation">
         <enum>Qt::Horizontal</enum>
        </property>
        <property name="sizeHint" stdset="0">
         <size>
          <width>52</width>
          <height>22</height>
         </size>
        </property>
       </spacer>
      </item>
     </layout>
    </widget>
   </item>
   <item row="11" column="0">
    <widget class="QGroupBox" name="groupBoxDiff">
     <property name="toolTip">
      <string>&lt;html&gt;&lt;head/&gt;&lt;body&gt;&lt;p&gt;&lt;span style=&quot; font-size:9pt;&quot;&gt;Define the diffusion coefficient of species in m&lt;/span&gt;&lt;span style=&quot; font-size:9pt; vertical-align:super;&quot;&gt;2&lt;/span&gt;&lt;span style=&quot; font-size:9pt;&quot;&gt;/s. It can be either constant, in which case the reference value must be completed, or variable and then the formula editor must be filled. Useful only with a user scalar.&lt;/span&gt;&lt;/p&gt;&lt;/body&gt;&lt;/html&gt;</string>
     </property>
     <property name="title">
      <string>Diffusion coefficient of species</string>
     </property>
     <layout class="QGridLayout">
      <property name="margin">
       <number>9</number>
      </property>
      <property name="spacing">
       <number>6</number>
      </property>
      <item row="2" column="1">
       <layout class="QVBoxLayout">
        <property name="spacing">
         <number>6</number>
        </property>
        <property name="margin">
         <number>0</number>
        </property>
        <item>
         <layout class="QHBoxLayout">
          <property name="spacing">
           <number>6</number>
          </property>
          <property name="margin">
           <number>0</number>
          </property>
          <item>
           <widget class="QComboBox" name="comboBoxDiff">
            <property name="toolTip">
             <string>&lt;html&gt;&lt;head/&gt;&lt;body&gt;&lt;p&gt;&lt;span style=&quot; font-size:9pt;&quot;&gt;Fill the formula editor in case of a variable diffusion coefficient.&lt;/span&gt;&lt;/p&gt;&lt;/body&gt;&lt;/html&gt;</string>
            </property>
           </widget>
          </item>
          <item>
           <spacer>
            <property name="orientation">
             <enum>Qt::Horizontal</enum>
            </property>
            <property name="sizeHint" stdset="0">
             <size>
              <width>16</width>
              <height>20</height>
             </size>
            </property>
           </spacer>
          </item>
          <item>
           <widget class="QPushButton" name="pushButtonDiff">
            <property name="toolTip">
             <string>&lt;html&gt;&lt;head/&gt;&lt;body&gt;&lt;p&gt;&lt;span style=&quot; font-size:9pt;&quot;&gt;Fill the formula editor in case of a variable diffusion coefficient.&lt;/span&gt;&lt;/p&gt;&lt;/body&gt;&lt;/html&gt;</string>
            </property>
            <property name="text">
             <string/>
            </property>
            <property name="icon">
             <iconset resource="resources_pages.qrc">
              <normaloff>:/new/prefix1/icons/22x22/edit-find-replace.png</normaloff>:/new/prefix1/icons/22x22/edit-find-replace.png</iconset>
            </property>
           </widget>
          </item>
          <item>
           <spacer>
            <property name="orientation">
             <enum>Qt::Horizontal</enum>
            </property>
            <property name="sizeHint" stdset="0">
             <size>
              <width>40</width>
              <height>20</height>
             </size>
            </property>
           </spacer>
          </item>
         </layout>
        </item>
        <item>
         <layout class="QHBoxLayout">
          <property name="spacing">
           <number>6</number>
          </property>
          <property name="margin">
           <number>0</number>
          </property>
          <item>
           <widget class="QLabel" name="labelDiff">
            <property name="toolTip">
             <string>&lt;html&gt;&lt;head/&gt;&lt;body&gt;&lt;p&gt;&lt;span style=&quot; font-size:9pt;&quot;&gt;Define the diffusion coefficient reference value in m&lt;/span&gt;&lt;span style=&quot; font-size:9pt; vertical-align:super;&quot;&gt;2&lt;/span&gt;&lt;span style=&quot; font-size:9pt;&quot;&gt;/s. If the diffusion coefficient is variable, this value will be used for the initialization.&lt;/span&gt;&lt;/p&gt;&lt;/body&gt;&lt;/html&gt;</string>
            </property>
            <property name="text">
             <string>Reference value</string>
            </property>
           </widget>
          </item>
          <item>
           <widget class="QLineEdit" name="lineEditDiff">
            <property name="toolTip">
             <string>&lt;html&gt;&lt;head/&gt;&lt;body&gt;&lt;p&gt;&lt;span style=&quot; font-size:9pt;&quot;&gt;Define the diffusion coefficient reference value in m&lt;/span&gt;&lt;span style=&quot; font-size:9pt; vertical-align:super;&quot;&gt;2&lt;/span&gt;&lt;span style=&quot; font-size:9pt;&quot;&gt;/s. If the diffusion coefficient is variable, this value will be used for the initialization.&lt;/span&gt;&lt;/p&gt;&lt;/body&gt;&lt;/html&gt;</string>
            </property>
           </widget>
          </item>
          <item>
           <widget class="QLabel" name="labelUnitDiff">
            <property name="toolTip">
             <string>&lt;html&gt;&lt;head/&gt;&lt;body&gt;&lt;p&gt;&lt;span style=&quot; font-size:9pt;&quot;&gt;Define the diffusion coefficient reference value in m&lt;/span&gt;&lt;span style=&quot; font-size:9pt; vertical-align:super;&quot;&gt;2&lt;/span&gt;&lt;span style=&quot; font-size:9pt;&quot;&gt;/s. If the diffusion coefficient is variable, this value will be used for the initialization.&lt;/span&gt;&lt;/p&gt;&lt;/body&gt;&lt;/html&gt;</string>
            </property>
            <property name="text">
             <string>m/s</string>
            </property>
           </widget>
          </item>
         </layout>
        </item>
       </layout>
      </item>
      <item row="2" column="0">
       <spacer>
        <property name="orientation">
         <enum>Qt::Horizontal</enum>
        </property>
        <property name="sizeHint" stdset="0">
         <size>
          <width>40</width>
          <height>20</height>
         </size>
        </property>
       </spacer>
      </item>
      <item row="2" column="2">
       <spacer>
        <property name="orientation">
         <enum>Qt::Horizontal</enum>
        </property>
        <property name="sizeHint" stdset="0">
         <size>
          <width>40</width>
          <height>20</height>
         </size>
        </property>
       </spacer>
      </item>
      <item row="0" column="0" colspan="3">
       <layout class="QHBoxLayout">
        <property name="spacing">
         <number>6</number>
        </property>
        <property name="margin">
         <number>0</number>
        </property>
        <item>
         <spacer>
          <property name="orientation">
           <enum>Qt::Horizontal</enum>
          </property>
          <property name="sizeHint" stdset="0">
           <size>
            <width>40</width>
            <height>20</height>
           </size>
          </property>
         </spacer>
        </item>
        <item>
         <widget class="QLabel" name="label">
          <property name="toolTip">
           <string>&lt;html&gt;&lt;head/&gt;&lt;body&gt;&lt;p&gt;&lt;span style=&quot; font-size:9pt;&quot;&gt;Select the scalar.&lt;/span&gt;&lt;/p&gt;&lt;/body&gt;&lt;/html&gt;</string>
          </property>
          <property name="text">
           <string>Name</string>
          </property>
         </widget>
        </item>
        <item>
         <widget class="QComboBox" name="comboBoxNameDiff">
          <property name="toolTip">
           <string>&lt;html&gt;&lt;head/&gt;&lt;body&gt;&lt;p&gt;&lt;span style=&quot; font-size:9pt;&quot;&gt;Select the scalar.&lt;/span&gt;&lt;/p&gt;&lt;/body&gt;&lt;/html&gt;</string>
          </property>
         </widget>
        </item>
        <item>
         <spacer>
          <property name="orientation">
           <enum>Qt::Horizontal</enum>
          </property>
          <property name="sizeHint" stdset="0">
           <size>
            <width>40</width>
            <height>20</height>
           </size>
          </property>
         </spacer>
        </item>
       </layout>
      </item>
      <item row="1" column="0" colspan="3">
       <widget class="Line" name="line">
        <property name="orientation">
         <enum>Qt::Horizontal</enum>
        </property>
       </widget>
      </item>
     </layout>
    </widget>
   </item>
   <item row="12" column="0">
    <spacer>
     <property name="orientation">
      <enum>Qt::Vertical</enum>
     </property>
     <property name="sizeHint" stdset="0">
      <size>
       <width>469</width>
       <height>16</height>
      </size>
     </property>
    </spacer>
   </item>
   <item row="1" column="0">
    <widget class="QGroupBox" name="groupBoxPressure">
     <property name="toolTip">
      <string>&lt;html&gt;&lt;head/&gt;&lt;body&gt;&lt;p&gt;&lt;span style=&quot; font-size:9pt;&quot;&gt;Define the reference pressure in Pascals. &lt;/span&gt;&lt;span style=&quot; font-size:9pt; font-weight:600;&quot;&gt;p0&lt;/span&gt;&lt;span style=&quot; font-size:9pt;&quot;&gt; is the reference pressure for the total pressure. Except with the compressible module, the total pressure P is evaluated from the reduced pressure &lt;/span&gt;&lt;span style=&quot; font-size:9pt; font-weight:600;&quot;&gt;P*&lt;/span&gt;&lt;span style=&quot; font-size:9pt;&quot;&gt; so that &lt;/span&gt;&lt;span style=&quot; font-size:9pt; font-weight:600;&quot;&gt;P&lt;/span&gt;&lt;span style=&quot; font-size:9pt;&quot;&gt; is equal to &lt;/span&gt;&lt;span style=&quot; font-size:9pt; font-weight:600;&quot;&gt;p0&lt;/span&gt;&lt;span style=&quot; font-size:9pt;&quot;&gt; at the reference position &lt;/span&gt;&lt;span style=&quot; font-size:9pt; font-weight:600;&quot;&gt;x0&lt;/span&gt;&lt;span style=&quot; font-size:9pt;&quot;&gt; (given by &lt;/span&gt;&lt;span style=&quot; font-size:9pt; font-weight:600;&quot;&gt;xyzp0&lt;/span&gt;&lt;span style=&quot; font-size:9pt;&quot;&gt;).&lt;/span&gt;&lt;/p&gt;&lt;p&gt;&lt;span style=&quot; font-size:9pt;&quot;&gt;(Code_Saturne key word: &lt;/span&gt;&lt;span style=&quot; font-size:9pt; font-weight:600;&quot;&gt;P0&lt;/span&gt;&lt;span style=&quot; font-size:9pt;&quot;&gt;)&lt;/span&gt;&lt;/p&gt;&lt;/body&gt;&lt;/html&gt;</string>
     </property>
     <property name="title">
      <string>Reference pressure</string>
     </property>
     <layout class="QGridLayout" name="_7">
      <item row="0" column="0">
       <layout class="QHBoxLayout" name="_8">
        <item>
         <spacer>
          <property name="orientation">
           <enum>Qt::Horizontal</enum>
          </property>
          <property name="sizeHint" stdset="0">
           <size>
            <width>20</width>
            <height>20</height>
           </size>
          </property>
         </spacer>
        </item>
        <item>
         <widget class="QLabel" name="labelP0">
          <property name="toolTip">
           <string>&lt;html&gt;&lt;head/&gt;&lt;body&gt;&lt;p&gt;&lt;span style=&quot; font-size:9pt;&quot;&gt;Define the reference pressure in Pascals. &lt;/span&gt;&lt;span style=&quot; font-size:9pt; font-weight:600;&quot;&gt;p0&lt;/span&gt;&lt;span style=&quot; font-size:9pt;&quot;&gt; is the reference pressure for the total pressure. Except with the compressible module, the total pressure P is evaluated from the reduced pressure &lt;/span&gt;&lt;span style=&quot; font-size:9pt; font-weight:600;&quot;&gt;P*&lt;/span&gt;&lt;span style=&quot; font-size:9pt;&quot;&gt; so that &lt;/span&gt;&lt;span style=&quot; font-size:9pt; font-weight:600;&quot;&gt;P&lt;/span&gt;&lt;span style=&quot; font-size:9pt;&quot;&gt; is equal to &lt;/span&gt;&lt;span style=&quot; font-size:9pt; font-weight:600;&quot;&gt;p0&lt;/span&gt;&lt;span style=&quot; font-size:9pt;&quot;&gt; at the reference position &lt;/span&gt;&lt;span style=&quot; font-size:9pt; font-weight:600;&quot;&gt;x0&lt;/span&gt;&lt;span style=&quot; font-size:9pt;&quot;&gt; (given by &lt;/span&gt;&lt;span style=&quot; font-size:9pt; font-weight:600;&quot;&gt;xyzp0&lt;/span&gt;&lt;span style=&quot; font-size:9pt;&quot;&gt;).&lt;/span&gt;&lt;/p&gt;&lt;p&gt;&lt;span style=&quot; font-size:9pt;&quot;&gt;(Code_Saturne key word: &lt;/span&gt;&lt;span style=&quot; font-size:9pt; font-weight:600;&quot;&gt;P0&lt;/span&gt;&lt;span style=&quot; font-size:9pt;&quot;&gt;)&lt;/span&gt;&lt;/p&gt;&lt;/body&gt;&lt;/html&gt;</string>
          </property>
          <property name="text">
           <string>Reference value for total pressure</string>
          </property>
         </widget>
        </item>
        <item>
         <widget class="QLineEdit" name="lineEditP0">
          <property name="toolTip">
           <string>&lt;html&gt;&lt;head/&gt;&lt;body&gt;&lt;p&gt;&lt;span style=&quot; font-size:9pt;&quot;&gt;Define the reference pressure in Pascals. &lt;/span&gt;&lt;span style=&quot; font-size:9pt; font-weight:600;&quot;&gt;p0&lt;/span&gt;&lt;span style=&quot; font-size:9pt;&quot;&gt; is the reference pressure for the total pressure. Except with the compressible module, the total pressure P is evaluated from the reduced pressure &lt;/span&gt;&lt;span style=&quot; font-size:9pt; font-weight:600;&quot;&gt;P*&lt;/span&gt;&lt;span style=&quot; font-size:9pt;&quot;&gt; so that &lt;/span&gt;&lt;span style=&quot; font-size:9pt; font-weight:600;&quot;&gt;P&lt;/span&gt;&lt;span style=&quot; font-size:9pt;&quot;&gt; is equal to &lt;/span&gt;&lt;span style=&quot; font-size:9pt; font-weight:600;&quot;&gt;p0&lt;/span&gt;&lt;span style=&quot; font-size:9pt;&quot;&gt; at the reference position &lt;/span&gt;&lt;span style=&quot; font-size:9pt; font-weight:600;&quot;&gt;x0&lt;/span&gt;&lt;span style=&quot; font-size:9pt;&quot;&gt; (given by &lt;/span&gt;&lt;span style=&quot; font-size:9pt; font-weight:600;&quot;&gt;xyzp0&lt;/span&gt;&lt;span style=&quot; font-size:9pt;&quot;&gt;).&lt;/span&gt;&lt;/p&gt;&lt;p&gt;&lt;span style=&quot; font-size:9pt;&quot;&gt;(Code_Saturne key word: &lt;/span&gt;&lt;span style=&quot; font-size:9pt; font-weight:600;&quot;&gt;P0&lt;/span&gt;&lt;span style=&quot; font-size:9pt;&quot;&gt;)&lt;/span&gt;&lt;/p&gt;&lt;/body&gt;&lt;/html&gt;</string>
          </property>
         </widget>
        </item>
        <item>
         <widget class="QLabel" name="labelUnitP0">
          <property name="toolTip">
           <string>&lt;html&gt;&lt;head/&gt;&lt;body&gt;&lt;p&gt;&lt;span style=&quot; font-size:9pt;&quot;&gt;Define the reference pressure in Pascals. &lt;/span&gt;&lt;span style=&quot; font-size:9pt; font-weight:600;&quot;&gt;p0&lt;/span&gt;&lt;span style=&quot; font-size:9pt;&quot;&gt; is the reference pressure for the total pressure. Except with the compressible module, the total pressure P is evaluated from the reduced pressure &lt;/span&gt;&lt;span style=&quot; font-size:9pt; font-weight:600;&quot;&gt;P*&lt;/span&gt;&lt;span style=&quot; font-size:9pt;&quot;&gt; so that &lt;/span&gt;&lt;span style=&quot; font-size:9pt; font-weight:600;&quot;&gt;P&lt;/span&gt;&lt;span style=&quot; font-size:9pt;&quot;&gt; is equal to &lt;/span&gt;&lt;span style=&quot; font-size:9pt; font-weight:600;&quot;&gt;p0&lt;/span&gt;&lt;span style=&quot; font-size:9pt;&quot;&gt; at the reference position &lt;/span&gt;&lt;span style=&quot; font-size:9pt; font-weight:600;&quot;&gt;x0&lt;/span&gt;&lt;span style=&quot; font-size:9pt;&quot;&gt; (given by &lt;/span&gt;&lt;span style=&quot; font-size:9pt; font-weight:600;&quot;&gt;xyzp0&lt;/span&gt;&lt;span style=&quot; font-size:9pt;&quot;&gt;).&lt;/span&gt;&lt;/p&gt;&lt;p&gt;&lt;span style=&quot; font-size:9pt;&quot;&gt;(Code_Saturne key word: &lt;/span&gt;&lt;span style=&quot; font-size:9pt; font-weight:600;&quot;&gt;P0&lt;/span&gt;&lt;span style=&quot; font-size:9pt;&quot;&gt;)&lt;/span&gt;&lt;/p&gt;&lt;/body&gt;&lt;/html&gt;</string>
          </property>
          <property name="text">
           <string>Pa</string>
          </property>
         </widget>
        </item>
        <item>
         <spacer>
          <property name="orientation">
           <enum>Qt::Horizontal</enum>
          </property>
          <property name="sizeHint" stdset="0">
           <size>
            <width>16</width>
            <height>16</height>
           </size>
          </property>
         </spacer>
        </item>
       </layout>
      </item>
     </layout>
    </widget>
   </item>
   <item row="2" column="0">
    <widget class="QGroupBox" name="groupBoxTemperature">
     <property name="toolTip">
      <string>&lt;html&gt;&lt;head/&gt;&lt;body&gt;&lt;p&gt;&lt;span style=&quot; font-size:9pt;&quot;&gt;Define the reference temperature in Kelvin. For the combustion, electric model and compressible modules, defining this temprature is compulsory (initialization) and must be greather than 0.&lt;/span&gt;&lt;/p&gt;&lt;p&gt;&lt;span style=&quot; font-size:9pt;&quot;&gt;(Code_Saturne key word: &lt;/span&gt;&lt;span style=&quot; font-size:9pt; font-weight:600;&quot;&gt;T0&lt;/span&gt;&lt;span style=&quot; font-size:9pt;&quot;&gt;)&lt;/span&gt;&lt;/p&gt;&lt;/body&gt;&lt;/html&gt;</string>
     </property>
     <property name="title">
      <string>Reference temperature</string>
     </property>
     <layout class="QGridLayout" name="_9">
      <item row="0" column="0">
       <layout class="QHBoxLayout" name="_10">
        <item>
         <spacer>
          <property name="orientation">
           <enum>Qt::Horizontal</enum>
          </property>
          <property name="sizeHint" stdset="0">
           <size>
            <width>20</width>
            <height>20</height>
           </size>
          </property>
         </spacer>
        </item>
        <item>
         <widget class="QLabel" name="labelT0">
          <property name="toolTip">
           <string>&lt;html&gt;&lt;head/&gt;&lt;body&gt;&lt;p&gt;&lt;span style=&quot; font-size:9pt;&quot;&gt;Define the reference temperature in Kelvin. For the combustion, electric model and compressible modules, defining this temprature is compulsory (initialization) and must be greather than 0.&lt;/span&gt;&lt;/p&gt;&lt;p&gt;&lt;span style=&quot; font-size:9pt;&quot;&gt;(Code_Saturne key word: &lt;/span&gt;&lt;span style=&quot; font-size:9pt; font-weight:600;&quot;&gt;T0&lt;/span&gt;&lt;span style=&quot; font-size:9pt;&quot;&gt;)&lt;/span&gt;&lt;/p&gt;&lt;/body&gt;&lt;/html&gt;</string>
          </property>
          <property name="text">
           <string>Reference temperature</string>
          </property>
         </widget>
        </item>
        <item>
         <widget class="QLineEdit" name="lineEditT0">
          <property name="toolTip">
           <string>&lt;html&gt;&lt;head/&gt;&lt;body&gt;&lt;p&gt;&lt;span style=&quot; font-size:9pt;&quot;&gt;Define the reference temperature in Kelvin. For the combustion, electric model and compressible modules, defining this temprature is compulsory (initialization) and must be greather than 0.&lt;/span&gt;&lt;/p&gt;&lt;p&gt;&lt;span style=&quot; font-size:9pt;&quot;&gt;(Code_Saturne key word: &lt;/span&gt;&lt;span style=&quot; font-size:9pt; font-weight:600;&quot;&gt;T0&lt;/span&gt;&lt;span style=&quot; font-size:9pt;&quot;&gt;)&lt;/span&gt;&lt;/p&gt;&lt;/body&gt;&lt;/html&gt;</string>
          </property>
         </widget>
        </item>
        <item>
         <widget class="QLabel" name="labelUnitT0">
          <property name="toolTip">
           <string>&lt;html&gt;&lt;head/&gt;&lt;body&gt;&lt;p&gt;&lt;span style=&quot; font-size:9pt;&quot;&gt;Define the reference temperature in Kelvin. For the combustion, electric model and compressible modules, defining this temprature is compulsory (initialization) and must be greather than 0.&lt;/span&gt;&lt;/p&gt;&lt;p&gt;&lt;span style=&quot; font-size:9pt;&quot;&gt;(Code_Saturne key word: &lt;/span&gt;&lt;span style=&quot; font-size:9pt; font-weight:600;&quot;&gt;T0&lt;/span&gt;&lt;span style=&quot; font-size:9pt;&quot;&gt;)&lt;/span&gt;&lt;/p&gt;&lt;/body&gt;&lt;/html&gt;</string>
          </property>
          <property name="text">
           <string>K</string>
          </property>
         </widget>
        </item>
        <item>
         <spacer>
          <property name="orientation">
           <enum>Qt::Horizontal</enum>
          </property>
          <property name="sizeHint" stdset="0">
           <size>
            <width>16</width>
            <height>16</height>
           </size>
          </property>
         </spacer>
        </item>
       </layout>
      </item>
      <item row="1" column="0">
       <layout class="QHBoxLayout" name="_11">
        <item>
         <spacer>
          <property name="orientation">
           <enum>Qt::Horizontal</enum>
          </property>
          <property name="sizeHint" stdset="0">
           <size>
            <width>20</width>
            <height>20</height>
           </size>
          </property>
         </spacer>
        </item>
        <item>
         <widget class="QLabel" name="labelInfoT0">
          <property name="toolTip">
           <string>&lt;html&gt;&lt;head/&gt;&lt;body&gt;&lt;p&gt;&lt;span style=&quot; font-size:9pt;&quot;&gt;Define the reference temperature in Kelvin. For the combustion, electric model and compressible modules, defining this temprature is compulsory (initialization) and must be greather than 0.&lt;/span&gt;&lt;/p&gt;&lt;p&gt;&lt;span style=&quot; font-size:9pt;&quot;&gt;(Code_Saturne key word: &lt;/span&gt;&lt;span style=&quot; font-size:9pt; font-weight:600;&quot;&gt;T0&lt;/span&gt;&lt;span style=&quot; font-size:9pt;&quot;&gt;)&lt;/span&gt;&lt;/p&gt;&lt;/body&gt;&lt;/html&gt;</string>
          </property>
          <property name="text">
           <string>(used for properties initialization)</string>
          </property>
         </widget>
        </item>
        <item>
         <spacer>
          <property name="orientation">
           <enum>Qt::Horizontal</enum>
          </property>
          <property name="sizeHint" stdset="0">
           <size>
            <width>16</width>
            <height>16</height>
           </size>
          </property>
         </spacer>
        </item>
       </layout>
      </item>
     </layout>
    </widget>
   </item>
   <item row="4" column="0">
    <widget class="QGroupBox" name="groupBoxMassMolar">
     <property name="toolTip">
      <string>&lt;html&gt;&lt;head/&gt;&lt;body&gt;&lt;p&gt;&lt;span style=&quot; font-size:9pt;&quot;&gt;Define the reference molar mass in kg/mol for compressible flows.&lt;/span&gt;&lt;/p&gt;&lt;p&gt;&lt;span style=&quot; font-size:9pt;&quot;&gt;(Code_Saturne key word: &lt;/span&gt;&lt;span style=&quot; font-size:9pt; font-weight:600;&quot;&gt;XMASMR&lt;/span&gt;&lt;span style=&quot; font-size:9pt;&quot;&gt;)&lt;/span&gt;&lt;/p&gt;&lt;/body&gt;&lt;/html&gt;</string>
     </property>
     <property name="title">
      <string>Molar mass reference</string>
     </property>
     <layout class="QGridLayout" name="_12">
      <item row="0" column="0">
       <layout class="QHBoxLayout" name="_13">
        <item>
         <spacer>
          <property name="orientation">
           <enum>Qt::Horizontal</enum>
          </property>
          <property name="sizeHint" stdset="0">
           <size>
            <width>20</width>
            <height>20</height>
           </size>
          </property>
         </spacer>
        </item>
        <item>
         <widget class="QLabel" name="labelMassMolar">
          <property name="toolTip">
           <string>&lt;html&gt;&lt;head/&gt;&lt;body&gt;&lt;p&gt;&lt;span style=&quot; font-size:9pt;&quot;&gt;Define the reference molar mass in kg/mol for compressible flows.&lt;/span&gt;&lt;/p&gt;&lt;p&gt;&lt;span style=&quot; font-size:9pt;&quot;&gt;(Code_Saturne key word: &lt;/span&gt;&lt;span style=&quot; font-size:9pt; font-weight:600;&quot;&gt;XMASMR&lt;/span&gt;&lt;span style=&quot; font-size:9pt;&quot;&gt;)&lt;/span&gt;&lt;/p&gt;&lt;/body&gt;&lt;/html&gt;</string>
          </property>
          <property name="text">
           <string>Molar mass reference</string>
          </property>
         </widget>
        </item>
        <item>
         <widget class="QLineEdit" name="lineEditMassMolar">
          <property name="toolTip">
           <string>&lt;html&gt;&lt;head/&gt;&lt;body&gt;&lt;p&gt;&lt;span style=&quot; font-size:9pt;&quot;&gt;Define the reference molar mass in kg/mol for compressible flows.&lt;/span&gt;&lt;/p&gt;&lt;p&gt;&lt;span style=&quot; font-size:9pt;&quot;&gt;(Code_Saturne key word: &lt;/span&gt;&lt;span style=&quot; font-size:9pt; font-weight:600;&quot;&gt;XMASMR&lt;/span&gt;&lt;span style=&quot; font-size:9pt;&quot;&gt;)&lt;/span&gt;&lt;/p&gt;&lt;/body&gt;&lt;/html&gt;</string>
          </property>
         </widget>
        </item>
        <item>
         <widget class="QLabel" name="labelUnitMassMolar">
          <property name="toolTip">
           <string>&lt;html&gt;&lt;head/&gt;&lt;body&gt;&lt;p&gt;&lt;span style=&quot; font-size:9pt;&quot;&gt;Define the reference molar mass in kg/mol for compressible flows.&lt;/span&gt;&lt;/p&gt;&lt;p&gt;&lt;span style=&quot; font-size:9pt;&quot;&gt;(Code_Saturne key word: &lt;/span&gt;&lt;span style=&quot; font-size:9pt; font-weight:600;&quot;&gt;XMASMR&lt;/span&gt;&lt;span style=&quot; font-size:9pt;&quot;&gt;)&lt;/span&gt;&lt;/p&gt;&lt;/body&gt;&lt;/html&gt;</string>
          </property>
          <property name="text">
           <string>kg/mol</string>
          </property>
         </widget>
        </item>
        <item>
         <spacer>
          <property name="orientation">
           <enum>Qt::Horizontal</enum>
          </property>
          <property name="sizeHint" stdset="0">
           <size>
            <width>16</width>
            <height>16</height>
           </size>
          </property>
         </spacer>
        </item>
       </layout>
      </item>
      <item row="1" column="0">
       <layout class="QHBoxLayout" name="_14">
        <item>
         <spacer>
          <property name="orientation">
           <enum>Qt::Horizontal</enum>
          </property>
          <property name="sizeHint" stdset="0">
           <size>
            <width>20</width>
            <height>20</height>
           </size>
          </property>
         </spacer>
        </item>
        <item>
         <widget class="QLabel" name="labelInfoMassMolar">
          <property name="toolTip">
           <string>&lt;html&gt;&lt;head/&gt;&lt;body&gt;&lt;p&gt;&lt;span style=&quot; font-size:9pt;&quot;&gt;Define the reference molar mass in kg/mol for compressible flows.&lt;/span&gt;&lt;/p&gt;&lt;p&gt;&lt;span style=&quot; font-size:9pt;&quot;&gt;(Code_Saturne key word: &lt;/span&gt;&lt;span style=&quot; font-size:9pt; font-weight:600;&quot;&gt;XMASMR&lt;/span&gt;&lt;span style=&quot; font-size:9pt;&quot;&gt;)&lt;/span&gt;&lt;/p&gt;&lt;/body&gt;&lt;/html&gt;</string>
          </property>
          <property name="text">
           <string>(used for initialization of user scalars)</string>
          </property>
         </widget>
        </item>
        <item>
         <spacer>
          <property name="orientation">
           <enum>Qt::Horizontal</enum>
          </property>
          <property name="sizeHint" stdset="0">
           <size>
            <width>16</width>
            <height>16</height>
           </size>
          </property>
         </spacer>
        </item>
       </layout>
      </item>
     </layout>
    </widget>
   </item>
  </layout>
 </widget>
 <tabstops>
  <tabstop>comboBoxRho</tabstop>
  <tabstop>lineEditRho</tabstop>
  <tabstop>comboBoxMu</tabstop>
  <tabstop>lineEditMu</tabstop>
  <tabstop>comboBoxCp</tabstop>
  <tabstop>lineEditCp</tabstop>
  <tabstop>comboBoxAl</tabstop>
  <tabstop>lineEditAl</tabstop>
 </tabstops>
 <resources>
  <include location="resources_pages.qrc"/>
 </resources>
 <connections/>
</ui>
