<?xml version="1.0" encoding="UTF-8"?>
<ui version="4.0">
 <class>HeadLossesForm</class>
 <widget class="QWidget" name="HeadLossesForm">
  <property name="geometry">
   <rect>
    <x>0</x>
    <y>0</y>
    <width>410</width>
    <height>440</height>
   </rect>
  </property>
  <property name="windowTitle">
   <string>Form</string>
  </property>
  <layout class="QVBoxLayout" name="verticalLayout">
   <item>
    <widget class="QGroupBox" name="groupBoxZones">
     <property name="maximumSize">
      <size>
       <width>16777215</width>
       <height>150</height>
      </size>
     </property>
     <property name="toolTip">
      <string>&lt;html&gt;&lt;head/&gt;&lt;body&gt;&lt;p&gt;&lt;span style=&quot; font-size:9pt;&quot;&gt;Define head losses on volume zones defined in the Volume regions definition heading.&lt;/span&gt;&lt;/p&gt;&lt;/body&gt;&lt;/html&gt;</string>
     </property>
     <property name="title">
      <string>Select volume zone for head losses </string>
     </property>
     <layout class="QGridLayout">
      <item row="0" column="0">
       <widget class="QTreeView" name="treeView">
        <property name="toolTip">
         <string>&lt;html&gt;&lt;head/&gt;&lt;body&gt;&lt;p&gt;&lt;span style=&quot; font-size:9pt;&quot;&gt;Define head losses on volume zones defined in the Volume regions definition heading.&lt;/span&gt;&lt;/p&gt;&lt;/body&gt;&lt;/html&gt;</string>
        </property>
        <property name="indentation">
         <number>0</number>
        </property>
        <property name="rootIsDecorated">
         <bool>false</bool>
        </property>
       </widget>
      </item>
     </layout>
    </widget>
   </item>
   <item>
    <widget class="QGroupBox" name="groupBoxDef">
     <property name="toolTip">
      <string>&lt;html&gt;&lt;head/&gt;&lt;body&gt;&lt;p&gt;&lt;span style=&quot; font-size:9pt;&quot;&gt;Define the coefficients of the head losses tensor. This tensor is symmetric and positive.&lt;/span&gt;&lt;/p&gt;&lt;p&gt;&lt;span style=&quot; font-size:9pt;&quot;&gt;(Code_Saturne key word: &lt;/span&gt;&lt;span style=&quot; font-size:9pt; font-weight:600;&quot;&gt;CKUPDC(NCEPDP,6)&lt;/span&gt;&lt;span style=&quot; font-size:9pt;&quot;&gt;)&lt;/span&gt;&lt;/p&gt;&lt;/body&gt;&lt;/html&gt;</string>
     </property>
     <property name="title">
      <string>Tensor coefficients</string>
     </property>
     <layout class="QHBoxLayout" name="horizontalLayout_2">
      <item>
       <spacer name="horizontalSpacer_2">
        <property name="orientation">
         <enum>Qt::Horizontal</enum>
        </property>
        <property name="sizeHint" stdset="0">
         <size>
          <width>1</width>
          <height>18</height>
         </size>
        </property>
       </spacer>
      </item>
      <item>
       <layout class="QGridLayout" name="gridLayout">
        <item row="0" column="0">
         <widget class="QLabel" name="label_17">
          <property name="font">
           <font>
            <family>Sans Serif</family>
            <pointsize>9</pointsize>
            <weight>50</weight>
            <italic>false</italic>
            <bold>false</bold>
           </font>
          </property>
          <property name="styleSheet">
           <string notr="true">font: 9pt &quot;Sans Serif&quot;;abd</string>
          </property>
          <property name="text">
           <string>Head losses coefficients: ρdU/dt = -0.5ρα&lt;sub&gt;ij&lt;/sub&gt;|U| U&lt;/sub&gt;j</string>
          </property>
         </widget>
        </item>
        <item row="1" column="0" colspan="2">
         <layout class="QHBoxLayout" name="horizontalLayout">
          <item>
           <widget class="QLabel" name="label_2">
            <property name="toolTip">
             <string>&lt;html&gt;&lt;head/&gt;&lt;body&gt;&lt;p&gt;&lt;span style=&quot; font-size:9pt;&quot;&gt;Define the first diagonal component of the head losses tensor.&lt;/span&gt;&lt;/p&gt;&lt;/body&gt;&lt;/html&gt;</string>
            </property>
            <property name="text">
             <string>α&lt;sub&gt;XX&lt;/sub&gt;</string>
            </property>
           </widget>
          </item>
          <item>
           <widget class="QLineEdit" name="lineEdit">
            <property name="toolTip">
             <string>&lt;html&gt;&lt;head/&gt;&lt;body&gt;&lt;p&gt;&lt;span style=&quot; font-size:9pt;&quot;&gt;Define the first diagonal component of the head losses tensor.&lt;/span&gt;&lt;/p&gt;&lt;/body&gt;&lt;/html&gt;</string>
            </property>
           </widget>
          </item>
          <item>
           <spacer>
            <property name="orientation">
             <enum>Qt::Horizontal</enum>
            </property>
            <property name="sizeHint" stdset="0">
             <size>
              <width>13</width>
              <height>20</height>
             </size>
            </property>
           </spacer>
          </item>
          <item>
           <widget class="QLabel" name="label_3">
            <property name="toolTip">
             <string>&lt;html&gt;&lt;head/&gt;&lt;body&gt;&lt;p&gt;&lt;span style=&quot; font-size:9pt;&quot;&gt;Define the second diagonal component of the head losses tensor.&lt;/span&gt;&lt;/p&gt;&lt;/body&gt;&lt;/html&gt;</string>
            </property>
            <property name="text">
             <string>α&lt;sub&gt;YY&lt;/sub&gt;</string>
            </property>
           </widget>
          </item>
          <item>
           <widget class="QLineEdit" name="lineEdit_2">
            <property name="toolTip">
             <string>&lt;html&gt;&lt;head/&gt;&lt;body&gt;&lt;p&gt;&lt;span style=&quot; font-size:9pt;&quot;&gt;Define the second diagonal component of the head losses tensor.&lt;/span&gt;&lt;/p&gt;&lt;/body&gt;&lt;/html&gt;</string>
            </property>
           </widget>
          </item>
          <item>
           <spacer>
            <property name="orientation">
             <enum>Qt::Horizontal</enum>
            </property>
            <property name="sizeHint" stdset="0">
             <size>
              <width>13</width>
              <height>20</height>
             </size>
            </property>
           </spacer>
          </item>
          <item>
           <widget class="QLabel" name="label_4">
            <property name="toolTip">
             <string>&lt;html&gt;&lt;head/&gt;&lt;body&gt;&lt;p&gt;&lt;span style=&quot; font-size:9pt;&quot;&gt;Define the third diagonal component of the head losses tensor.&lt;/span&gt;&lt;/p&gt;&lt;/body&gt;&lt;/html&gt;</string>
            </property>
            <property name="text">
             <string>α&lt;sub&gt;ZZ&lt;/sub&gt;</string>
            </property>
           </widget>
          </item>
          <item>
           <widget class="QLineEdit" name="lineEdit_3">
            <property name="toolTip">
             <string>&lt;html&gt;&lt;head/&gt;&lt;body&gt;&lt;p&gt;&lt;span style=&quot; font-size:9pt;&quot;&gt;Define the third diagonal component of the head losses tensor.&lt;/span&gt;&lt;/p&gt;&lt;/body&gt;&lt;/html&gt;</string>
            </property>
           </widget>
          </item>
          <item>
           <spacer name="horizontalSpacer_4">
            <property name="orientation">
             <enum>Qt::Horizontal</enum>
            </property>
            <property name="sizeHint" stdset="0">
             <size>
              <width>40</width>
              <height>20</height>
             </size>
            </property>
           </spacer>
          </item>
         </layout>
        </item>
        <item row="0" column="1">
         <spacer name="horizontalSpacer">
          <property name="orientation">
           <enum>Qt::Horizontal</enum>
          </property>
          <property name="sizeHint" stdset="0">
           <size>
            <width>76</width>
            <height>20</height>
           </size>
          </property>
         </spacer>
        </item>
       </layout>
      </item>
      <item>
       <spacer name="horizontalSpacer_3">
        <property name="orientation">
         <enum>Qt::Horizontal</enum>
        </property>
        <property name="sizeHint" stdset="0">
         <size>
          <width>6</width>
          <height>13</height>
         </size>
        </property>
       </spacer>
      </item>
     </layout>
    </widget>
   </item>
   <item>
    <widget class="QGroupBox" name="groupBox_3">
     <property name="enabled">
      <bool>true</bool>
     </property>
     <property name="toolTip">
      <string>&lt;html&gt;&lt;head/&gt;&lt;body&gt;&lt;p&gt;&lt;span style=&quot; font-size:9pt;&quot;&gt;Modify the reference frame transformation matrix to define a local frame.&lt;/span&gt;&lt;/p&gt;&lt;/body&gt;&lt;/html&gt;</string>
     </property>
     <property name="title">
      <string>Reference frame transformation matrix</string>
     </property>
     <property name="checkable">
      <bool>true</bool>
     </property>
     <property name="checked">
      <bool>true</bool>
     </property>
     <layout class="QGridLayout" name="_5">
      <item row="0" column="0">
       <widget class="QFrame" name="frameTransfo">
        <property name="frameShape">
         <enum>QFrame::NoFrame</enum>
        </property>
        <property name="frameShadow">
         <enum>QFrame::Raised</enum>
        </property>
        <property name="lineWidth">
         <number>0</number>
        </property>
        <layout class="QGridLayout" name="_6">
         <item row="0" column="0">
          <widget class="QLabel" name="label">
           <property name="font">
            <font>
             <family>Sans Serif</family>
             <pointsize>9</pointsize>
             <italic>false</italic>
            </font>
           </property>
           <property name="toolTip">
            <string>&lt;html&gt;&lt;head/&gt;&lt;body&gt;&lt;p&gt;&lt;span style=&quot; font-size:9pt;&quot;&gt;Modify the reference frame transformation matrix to define a local frame.&lt;/span&gt;&lt;/p&gt;&lt;/body&gt;&lt;/html&gt;</string>
           </property>
           <property name="text">
            <string>&lt;html&gt;&lt;head/&gt;&lt;body&gt;&lt;p&gt;Reference frame: (x, y, z ) to Local frame: (X, Y, Z)&lt;/p&gt;&lt;/body&gt;&lt;/html&gt;</string>
           </property>
           <property name="alignment">
            <set>Qt::AlignCenter</set>
           </property>
          </widget>
         </item>
         <item row="1" column="0">
          <layout class="QGridLayout" name="_7">
           <item row="0" column="0">
            <spacer>
             <property name="orientation">
              <enum>Qt::Horizontal</enum>
             </property>
             <property name="sizeHint" stdset="0">
              <size>
               <width>40</width>
               <height>20</height>
              </size>
             </property>
            </spacer>
           </item>
           <item row="0" column="1">
            <layout class="QGridLayout" name="_8">
             <item row="0" column="0">
              <widget class="QLabel" name="label_18">
               <property name="toolTip">
                <string>&lt;html&gt;&lt;head/&gt;&lt;body&gt;&lt;p&gt;&lt;span style=&quot; font-size:9pt;&quot;&gt;Modify the reference frame transformation matrix to define a local frame.&lt;/span&gt;&lt;/p&gt;&lt;/body&gt;&lt;/html&gt;</string>
               </property>
               <property name="text">
                <string>X =</string>
               </property>
              </widget>
             </item>
             <item row="0" column="1">
              <widget class="QLineEdit" name="lineEdit_4">
               <property name="minimumSize">
                <size>
                 <width>50</width>
                 <height>0</height>
                </size>
               </property>
               <property name="maximumSize">
                <size>
                 <width>50</width>
                 <height>16777215</height>
                </size>
               </property>
               <property name="toolTip">
                <string>&lt;html&gt;&lt;head/&gt;&lt;body&gt;&lt;p&gt;&lt;span style=&quot; font-size:9pt;&quot;&gt;Modify the reference frame transformation matrix to define a local frame.&lt;/span&gt;&lt;/p&gt;&lt;/body&gt;&lt;/html&gt;</string>
               </property>
              </widget>
             </item>
             <item row="0" column="2">
              <widget class="QLabel" name="label_19">
               <property name="font">
                <font>
                 <family>LMRoman10</family>
                 <pointsize>10</pointsize>
                 <weight>50</weight>
                 <italic>true</italic>
                 <bold>false</bold>
                </font>
               </property>
               <property name="toolTip">
                <string>&lt;html&gt;&lt;head/&gt;&lt;body&gt;&lt;p&gt;&lt;span style=&quot; font-size:9pt;&quot;&gt;Modify the reference frame transformation matrix to define a local frame.&lt;/span&gt;&lt;/p&gt;&lt;/body&gt;&lt;/html&gt;</string>
               </property>
               <property name="text">
                <string>x +</string>
               </property>
              </widget>
             </item>
             <item row="0" column="3">
              <widget class="QLineEdit" name="lineEdit_5">
               <property name="minimumSize">
                <size>
                 <width>50</width>
                 <height>0</height>
                </size>
               </property>
               <property name="maximumSize">
                <size>
                 <width>50</width>
                 <height>16777215</height>
                </size>
               </property>
               <property name="toolTip">
                <string>&lt;html&gt;&lt;head/&gt;&lt;body&gt;&lt;p&gt;&lt;span style=&quot; font-size:9pt;&quot;&gt;Modify the reference frame transformation matrix to define a local frame.&lt;/span&gt;&lt;/p&gt;&lt;/body&gt;&lt;/html&gt;</string>
               </property>
              </widget>
             </item>
             <item row="0" column="4">
              <widget class="QLabel" name="label_20">
               <property name="font">
                <font>
                 <family>LMRoman10</family>
                 <pointsize>10</pointsize>
                 <italic>true</italic>
                </font>
               </property>
               <property name="toolTip">
                <string>&lt;html&gt;&lt;head/&gt;&lt;body&gt;&lt;p&gt;&lt;span style=&quot; font-size:9pt;&quot;&gt;Modify the reference frame transformation matrix to define a local frame.&lt;/span&gt;&lt;/p&gt;&lt;/body&gt;&lt;/html&gt;</string>
               </property>
               <property name="text">
                <string>y +</string>
               </property>
              </widget>
             </item>
             <item row="0" column="5">
              <widget class="QLineEdit" name="lineEdit_6">
               <property name="minimumSize">
                <size>
                 <width>50</width>
                 <height>0</height>
                </size>
               </property>
               <property name="maximumSize">
                <size>
                 <width>50</width>
                 <height>16777215</height>
                </size>
               </property>
               <property name="toolTip">
                <string>&lt;html&gt;&lt;head/&gt;&lt;body&gt;&lt;p&gt;&lt;span style=&quot; font-size:9pt;&quot;&gt;Modify the reference frame transformation matrix to define a local frame.&lt;/span&gt;&lt;/p&gt;&lt;/body&gt;&lt;/html&gt;</string>
               </property>
              </widget>
             </item>
             <item row="0" column="6">
              <widget class="QLabel" name="label_21">
               <property name="font">
                <font>
                 <family>LMRoman10</family>
                 <pointsize>10</pointsize>
                 <italic>true</italic>
                </font>
               </property>
               <property name="toolTip">
                <string>&lt;html&gt;&lt;head/&gt;&lt;body&gt;&lt;p&gt;&lt;span style=&quot; font-size:9pt;&quot;&gt;Modify the reference frame transformation matrix to define a local frame.&lt;/span&gt;&lt;/p&gt;&lt;/body&gt;&lt;/html&gt;</string>
               </property>
               <property name="text">
                <string>z </string>
               </property>
              </widget>
             </item>
             <item row="1" column="0">
              <widget class="QLabel" name="label_22">
               <property name="toolTip">
                <string>&lt;html&gt;&lt;head/&gt;&lt;body&gt;&lt;p&gt;&lt;span style=&quot; font-size:9pt;&quot;&gt;Modify the reference frame transformation matrix to define a local frame.&lt;/span&gt;&lt;/p&gt;&lt;/body&gt;&lt;/html&gt;</string>
               </property>
               <property name="text">
                <string>Y =</string>
               </property>
              </widget>
             </item>
             <item row="1" column="1">
              <widget class="QLineEdit" name="lineEdit_8">
               <property name="minimumSize">
                <size>
                 <width>50</width>
                 <height>0</height>
                </size>
               </property>
               <property name="maximumSize">
                <size>
                 <width>50</width>
                 <height>16777215</height>
                </size>
               </property>
               <property name="toolTip">
                <string>&lt;html&gt;&lt;head/&gt;&lt;body&gt;&lt;p&gt;&lt;span style=&quot; font-size:9pt;&quot;&gt;Modify the reference frame transformation matrix to define a local frame.&lt;/span&gt;&lt;/p&gt;&lt;/body&gt;&lt;/html&gt;</string>
               </property>
              </widget>
             </item>
             <item row="1" column="2">
              <widget class="QLabel" name="label_23">
               <property name="font">
                <font>
                 <family>LMRoman10</family>
                 <pointsize>10</pointsize>
                 <italic>true</italic>
                </font>
               </property>
               <property name="toolTip">
                <string>&lt;html&gt;&lt;head/&gt;&lt;body&gt;&lt;p&gt;&lt;span style=&quot; font-size:9pt;&quot;&gt;Modify the reference frame transformation matrix to define a local frame.&lt;/span&gt;&lt;/p&gt;&lt;/body&gt;&lt;/html&gt;</string>
               </property>
               <property name="text">
                <string>x +</string>
               </property>
              </widget>
             </item>
             <item row="1" column="3">
              <widget class="QLineEdit" name="lineEdit_9">
               <property name="minimumSize">
                <size>
                 <width>50</width>
                 <height>0</height>
                </size>
               </property>
               <property name="maximumSize">
                <size>
                 <width>50</width>
                 <height>16777215</height>
                </size>
               </property>
               <property name="toolTip">
                <string>&lt;html&gt;&lt;head/&gt;&lt;body&gt;&lt;p&gt;&lt;span style=&quot; font-size:9pt;&quot;&gt;Modify the reference frame transformation matrix to define a local frame.&lt;/span&gt;&lt;/p&gt;&lt;/body&gt;&lt;/html&gt;</string>
               </property>
              </widget>
             </item>
             <item row="1" column="4">
              <widget class="QLabel" name="label_24">
               <property name="font">
                <font>
                 <family>LMRoman10</family>
                 <pointsize>10</pointsize>
                 <italic>true</italic>
                </font>
               </property>
               <property name="toolTip">
                <string>&lt;html&gt;&lt;head/&gt;&lt;body&gt;&lt;p&gt;&lt;span style=&quot; font-size:9pt;&quot;&gt;Modify the reference frame transformation matrix to define a local frame.&lt;/span&gt;&lt;/p&gt;&lt;/body&gt;&lt;/html&gt;</string>
               </property>
               <property name="text">
                <string>y +</string>
               </property>
              </widget>
             </item>
             <item row="1" column="5">
              <widget class="QLineEdit" name="lineEdit_7">
               <property name="minimumSize">
                <size>
                 <width>50</width>
                 <height>0</height>
                </size>
               </property>
               <property name="maximumSize">
                <size>
                 <width>50</width>
                 <height>16777215</height>
                </size>
               </property>
               <property name="toolTip">
                <string>&lt;html&gt;&lt;head/&gt;&lt;body&gt;&lt;p&gt;&lt;span style=&quot; font-size:9pt;&quot;&gt;Modify the reference frame transformation matrix to define a local frame.&lt;/span&gt;&lt;/p&gt;&lt;/body&gt;&lt;/html&gt;</string>
               </property>
              </widget>
             </item>
             <item row="1" column="6">
              <widget class="QLabel" name="label_25">
               <property name="font">
                <font>
                 <family>LMRoman10</family>
                 <pointsize>10</pointsize>
                 <italic>true</italic>
                </font>
               </property>
               <property name="toolTip">
                <string>&lt;html&gt;&lt;head/&gt;&lt;body&gt;&lt;p&gt;&lt;span style=&quot; font-size:9pt;&quot;&gt;Modify the reference frame transformation matrix to define a local frame.&lt;/span&gt;&lt;/p&gt;&lt;/body&gt;&lt;/html&gt;</string>
               </property>
               <property name="text">
                <string>z</string>
               </property>
              </widget>
             </item>
             <item row="2" column="0">
              <widget class="QLabel" name="label_26">
               <property name="toolTip">
                <string>&lt;html&gt;&lt;head/&gt;&lt;body&gt;&lt;p&gt;&lt;span style=&quot; font-size:9pt;&quot;&gt;Modify the reference frame transformation matrix to define a local frame.&lt;/span&gt;&lt;/p&gt;&lt;/body&gt;&lt;/html&gt;</string>
               </property>
               <property name="text">
                <string>Z =</string>
               </property>
              </widget>
             </item>
             <item row="2" column="1">
              <widget class="QLineEdit" name="lineEdit_11">
               <property name="minimumSize">
                <size>
                 <width>50</width>
                 <height>0</height>
                </size>
               </property>
               <property name="maximumSize">
                <size>
                 <width>50</width>
                 <height>16777215</height>
                </size>
               </property>
               <property name="toolTip">
                <string>&lt;html&gt;&lt;head/&gt;&lt;body&gt;&lt;p&gt;&lt;span style=&quot; font-size:9pt;&quot;&gt;Modify the reference frame transformation matrix to define a local frame.&lt;/span&gt;&lt;/p&gt;&lt;/body&gt;&lt;/html&gt;</string>
               </property>
              </widget>
             </item>
             <item row="2" column="2">
              <widget class="QLabel" name="label_27">
               <property name="font">
                <font>
                 <family>LMRoman10</family>
                 <pointsize>10</pointsize>
                 <italic>true</italic>
                </font>
               </property>
               <property name="toolTip">
                <string>&lt;html&gt;&lt;head/&gt;&lt;body&gt;&lt;p&gt;&lt;span style=&quot; font-size:9pt;&quot;&gt;Modify the reference frame transformation matrix to define a local frame.&lt;/span&gt;&lt;/p&gt;&lt;/body&gt;&lt;/html&gt;</string>
               </property>
               <property name="text">
                <string>x +</string>
               </property>
              </widget>
             </item>
             <item row="2" column="3">
              <widget class="QLineEdit" name="lineEdit_12">
               <property name="minimumSize">
                <size>
                 <width>50</width>
                 <height>0</height>
                </size>
               </property>
               <property name="maximumSize">
                <size>
                 <width>50</width>
                 <height>16777215</height>
                </size>
               </property>
               <property name="toolTip">
                <string>&lt;html&gt;&lt;head/&gt;&lt;body&gt;&lt;p&gt;&lt;span style=&quot; font-size:9pt;&quot;&gt;Modify the reference frame transformation matrix to define a local frame.&lt;/span&gt;&lt;/p&gt;&lt;/body&gt;&lt;/html&gt;</string>
               </property>
              </widget>
             </item>
             <item row="2" column="4">
              <widget class="QLabel" name="label_28">
               <property name="font">
                <font>
                 <family>LMRoman10</family>
                 <pointsize>10</pointsize>
                 <italic>true</italic>
                </font>
               </property>
               <property name="toolTip">
                <string>&lt;html&gt;&lt;head/&gt;&lt;body&gt;&lt;p&gt;&lt;span style=&quot; font-size:9pt;&quot;&gt;Modify the reference frame transformation matrix to define a local frame.&lt;/span&gt;&lt;/p&gt;&lt;/body&gt;&lt;/html&gt;</string>
               </property>
               <property name="text">
                <string>y +</string>
               </property>
              </widget>
             </item>
             <item row="2" column="5">
              <widget class="QLineEdit" name="lineEdit_10">
               <property name="minimumSize">
                <size>
                 <width>50</width>
                 <height>0</height>
                </size>
               </property>
               <property name="maximumSize">
                <size>
                 <width>50</width>
                 <height>16777215</height>
                </size>
               </property>
               <property name="toolTip">
                <string>&lt;html&gt;&lt;head/&gt;&lt;body&gt;&lt;p&gt;&lt;span style=&quot; font-size:9pt;&quot;&gt;Modify the reference frame transformation matrix to define a local frame.&lt;/span&gt;&lt;/p&gt;&lt;/body&gt;&lt;/html&gt;</string>
               </property>
              </widget>
             </item>
             <item row="2" column="6">
              <widget class="QLabel" name="label_29">
               <property name="font">
                <font>
                 <family>LMRoman10</family>
                 <pointsize>10</pointsize>
                 <italic>true</italic>
                </font>
               </property>
               <property name="toolTip">
                <string>&lt;html&gt;&lt;head/&gt;&lt;body&gt;&lt;p&gt;&lt;span style=&quot; font-size:9pt;&quot;&gt;Modify the reference frame transformation matrix to define a local frame.&lt;/span&gt;&lt;/p&gt;&lt;/body&gt;&lt;/html&gt;</string>
               </property>
               <property name="text">
                <string>z</string>
               </property>
              </widget>
             </item>
            </layout>
           </item>
           <item row="0" column="2">
            <spacer>
             <property name="orientation">
              <enum>Qt::Horizontal</enum>
             </property>
             <property name="sizeHint" stdset="0">
              <size>
               <width>40</width>
               <height>20</height>
              </size>
             </property>
            </spacer>
           </item>
          </layout>
         </item>
        </layout>
       </widget>
      </item>
     </layout>
    </widget>
   </item>
   <item>
    <spacer name="spacer">
     <property name="orientation">
      <enum>Qt::Vertical</enum>
     </property>
     <property name="sizeHint" stdset="0">
      <size>
       <width>17</width>
       <height>152</height>
      </size>
     </property>
    </spacer>
   </item>
  </layout>
 </widget>
 <resources/>
 <connections/>
</ui>
