<?xml version="1.0" encoding="UTF-8"?>
<ui version="4.0">
 <class>LagrangianStatisticsForm</class>
 <widget class="QWidget" name="LagrangianStatisticsForm">
  <property name="geometry">
   <rect>
    <x>0</x>
    <y>0</y>
    <width>788</width>
    <height>914</height>
   </rect>
  </property>
  <property name="windowTitle">
   <string>Form</string>
  </property>
  <layout class="QVBoxLayout" name="verticalLayout">
   <item>
    <widget class="QGroupBox" name="groupBox">
     <property name="title">
      <string/>
     </property>
     <layout class="QHBoxLayout" name="horizontalLayout">
      <item>
       <spacer>
        <property name="orientation">
         <enum>Qt::Horizontal</enum>
        </property>
        <property name="sizeHint" stdset="0">
         <size>
          <width>42</width>
          <height>17</height>
         </size>
        </property>
       </spacer>
      </item>
      <item>
       <layout class="QGridLayout" name="gridLayout">
        <item row="0" column="0">
         <widget class="QLabel" name="labelISUIST">
          <property name="toolTip">
           <string>Code_Saturne key word: ISUIST</string>
          </property>
          <property name="text">
           <string>Particles statistics read from restart file</string>
          </property>
         </widget>
        </item>
        <item row="0" column="1">
         <widget class="QCheckBox" name="checkBoxISUIST">
          <property name="toolTip">
           <string>Code_Saturne key word: ISUIST</string>
          </property>
          <property name="text">
           <string/>
          </property>
         </widget>
        </item>
        <item row="1" column="0">
         <widget class="QLabel" name="labelNBCLST">
          <property name="toolTip">
           <string>Code_Saturne key word: NBCLST</string>
          </property>
          <property name="text">
           <string>Number of particle clusters </string>
          </property>
         </widget>
        </item>
        <item row="1" column="1">
         <widget class="QLineEdit" name="lineEditNBCLST">
          <property name="maximumSize">
           <size>
            <width>50</width>
            <height>16777215</height>
           </size>
          </property>
          <property name="toolTip">
           <string>Code_Saturne key word: NBCLST</string>
          </property>
         </widget>
        </item>
        <item row="2" column="0">
         <widget class="QLabel" name="labelIDSTNT">
          <property name="toolTip">
           <string>Code_Saturne key word: IDSTNT</string>
          </property>
          <property name="text">
           <string>Statistics start from iteration n°
(restart(s) included)</string>
          </property>
         </widget>
        </item>
        <item row="2" column="1">
         <widget class="QLineEdit" name="lineEditIDSTNT">
          <property name="maximumSize">
           <size>
            <width>100</width>
            <height>16777215</height>
           </size>
          </property>
          <property name="toolTip">
           <string>Code_Saturne key word: IDSTNT</string>
          </property>
         </widget>
        </item>
        <item row="3" column="0">
         <widget class="QLabel" name="labelNSTIST">
          <property name="toolTip">
           <string>Code_Saturne key word: NSTIST</string>
          </property>
          <property name="text">
           <string>Start of steady-state statistics from iteration n°
(restart(s) included)</string>
          </property>
         </widget>
        </item>
        <item row="3" column="1">
         <widget class="QLineEdit" name="lineEditNSTIST">
          <property name="maximumSize">
           <size>
            <width>100</width>
            <height>16777215</height>
           </size>
          </property>
          <property name="toolTip">
           <string>Code_Saturne key word: NSTIST</string>
          </property>
         </widget>
        </item>
        <item row="4" column="0">
         <widget class="QLabel" name="labelSEUIL">
          <property name="toolTip">
           <string>Code_Saturne key word: SEUIL</string>
          </property>
          <property name="text">
           <string>Threshold for statistical weight</string>
          </property>
         </widget>
        </item>
        <item row="4" column="1">
         <widget class="QLineEdit" name="lineEditSEUIL">
          <property name="maximumSize">
           <size>
            <width>100</width>
            <height>16777215</height>
           </size>
          </property>
          <property name="toolTip">
           <string>Code_Saturne key word: THRESHOLD</string>
          </property>
         </widget>
        </item>
       </layout>
      </item>
      <item>
       <spacer>
        <property name="orientation">
         <enum>Qt::Horizontal</enum>
        </property>
        <property name="sizeHint" stdset="0">
         <size>
          <width>41</width>
          <height>17</height>
         </size>
        </property>
       </spacer>
      </item>
     </layout>
    </widget>
   </item>
   <item>
    <widget class="QTabWidget" name="tabWidget">
     <property name="enabled">
      <bool>true</bool>
     </property>
     <property name="sizePolicy">
      <sizepolicy hsizetype="Expanding" vsizetype="Expanding">
       <horstretch>0</horstretch>
       <verstretch>1</verstretch>
      </sizepolicy>
     </property>
     <property name="maximumSize">
      <size>
       <width>16777215</width>
       <height>16777215</height>
      </size>
     </property>
     <property name="currentIndex">
      <number>0</number>
     </property>
     <widget class="QWidget" name="widget">
      <attribute name="title">
       <string>Volumes</string>
      </attribute>
      <layout class="QGridLayout" name="gridLayout_6">
       <item row="0" column="0">
        <widget class="QGroupBox" name="groupBoxISTALA">
         <property name="toolTip">
          <string>Volume statistics field definitions</string>
         </property>
         <property name="title">
          <string>Calculation of volume statistics</string>
         </property>
         <property name="checkable">
          <bool>true</bool>
         </property>
         <layout class="QGridLayout" name="gridLayout_5">
          <item row="0" column="0">
           <widget class="QGroupBox" name="groupBoxVolumeNames">
            <property name="title">
             <string>Variable names</string>
            </property>
            <layout class="QGridLayout">
             <item row="0" column="0">
              <widget class="QTableView" name="tableViewVolumicNames"/>
             </item>
            </layout>
           </widget>
          </item>
         </layout>
        </widget>
       </item>
      </layout>
     </widget>
     <widget class="QWidget" name="tab">
      <attribute name="title">
       <string>Boundaries</string>
      </attribute>
      <layout class="QGridLayout">
       <item row="0" column="0">
        <widget class="QGroupBox" name="groupBoxIENSI3">
         <property name="toolTip">
          <string>Code_Saturne key word: IENSI3</string>
         </property>
         <property name="title">
          <string>Calculation of boundary statistics</string>
         </property>
         <property name="checkable">
          <bool>true</bool>
         </property>
         <layout class="QGridLayout" name="gridLayout_3">
          <item row="0" column="0">
           <widget class="QGroupBox" name="groupBoxBoundariesNames">
            <property name="title">
             <string>Variable names</string>
            </property>
            <layout class="QGridLayout">
             <item row="0" column="0">
              <widget class="QTableView" name="tableViewBoundariesNames"/>
             </item>
            </layout>
           </widget>
          </item>
         </layout>
        </widget>
       </item>
      </layout>
     </widget>
    </widget>
   </item>
   <item>
    <spacer name="verticalSpacer">
     <property name="orientation">
      <enum>Qt::Vertical</enum>
     </property>
     <property name="sizeHint" stdset="0">
      <size>
       <width>13</width>
       <height>21</height>
      </size>
     </property>
    </spacer>
   </item>
  </layout>
 </widget>
 <resources/>
 <connections/>
</ui>
