<?xml version="1.0" encoding="UTF-8"?>
<ui version="4.0">
 <class>NumericalParamGlobalForm</class>
 <widget class="QWidget" name="NumericalParamGlobalForm">
  <property name="geometry">
   <rect>
    <x>0</x>
    <y>0</y>
    <width>436</width>
    <height>423</height>
   </rect>
  </property>
  <property name="windowTitle">
   <string>Form</string>
  </property>
  <layout class="QGridLayout" name="gridLayout_2">
   <item row="0" column="0">
    <widget class="QGroupBox" name="groupBox">
     <property name="title">
      <string>Global parameters</string>
     </property>
     <layout class="QGridLayout" name="gridLayout">
      <item row="0" column="0">
       <spacer name="horizontalSpacer_4">
        <property name="orientation">
         <enum>Qt::Horizontal</enum>
        </property>
        <property name="sizeHint" stdset="0">
         <size>
          <width>2</width>
          <height>20</height>
         </size>
        </property>
       </spacer>
      </item>
      <item row="0" column="1">
       <layout class="QVBoxLayout" name="verticalLayout">
        <item>
         <layout class="QHBoxLayout">
          <item>
           <spacer>
            <property name="orientation">
             <enum>Qt::Horizontal</enum>
            </property>
            <property name="sizeHint" stdset="0">
             <size>
              <width>16</width>
              <height>16</height>
             </size>
            </property>
           </spacer>
          </item>
          <item>
           <widget class="QFrame" name="frame_6">
            <property name="minimumSize">
             <size>
              <width>390</width>
              <height>16</height>
             </size>
            </property>
            <property name="frameShape">
             <enum>QFrame::NoFrame</enum>
            </property>
            <property name="frameShadow">
             <enum>QFrame::Raised</enum>
            </property>
            <layout class="QGridLayout">
             <property name="margin">
              <number>0</number>
             </property>
             <item row="0" column="0">
              <layout class="QGridLayout">
               <item row="0" column="0">
                <layout class="QHBoxLayout">
                 <item>
                  <widget class="QLabel" name="labelIMRGRA">
                   <property name="toolTip">
                    <string>Code_Saturne key word: IMRGRA</string>
                   </property>
                   <property name="text">
                    <string>Gradient calculation method:</string>
                   </property>
                  </widget>
                 </item>
                 <item>
                  <spacer>
                   <property name="orientation">
                    <enum>Qt::Horizontal</enum>
                   </property>
                   <property name="sizeHint" stdset="0">
                    <size>
                     <width>16</width>
                     <height>16</height>
                    </size>
                   </property>
                  </spacer>
                 </item>
                </layout>
               </item>
               <item row="1" column="0">
                <widget class="QComboBox" name="comboBoxIMRGRA">
                 <property name="toolTip">
                  <string>Code_Saturne key word: IMRGRA</string>
                 </property>
                </widget>
               </item>
              </layout>
             </item>
            </layout>
           </widget>
          </item>
          <item>
           <spacer>
            <property name="orientation">
             <enum>Qt::Horizontal</enum>
            </property>
            <property name="sizeHint" stdset="0">
             <size>
              <width>20</width>
              <height>20</height>
             </size>
            </property>
           </spacer>
          </item>
         </layout>
        </item>
        <item>
         <widget class="Line" name="line">
          <property name="orientation">
           <enum>Qt::Horizontal</enum>
          </property>
         </widget>
        </item>
        <item>
         <layout class="QHBoxLayout" name="horizontalLayout_2">
          <item>
           <spacer name="horizontalSpacer_2">
            <property name="orientation">
             <enum>Qt::Horizontal</enum>
            </property>
            <property name="sizeHint" stdset="0">
             <size>
              <width>17</width>
              <height>20</height>
             </size>
            </property>
           </spacer>
          </item>
          <item>
           <layout class="QHBoxLayout" name="horizontalLayout">
            <item>
             <widget class="QLabel" name="label">
              <property name="toolTip">
               <string>Code_Saturne key word: IMGR</string>
              </property>
              <property name="text">
               <string>Multigrid algorithm for pressure</string>
              </property>
             </widget>
            </item>
            <item>
             <spacer name="horizontalSpacer">
              <property name="orientation">
               <enum>Qt::Horizontal</enum>
              </property>
              <property name="sizeHint" stdset="0">
               <size>
                <width>158</width>
                <height>20</height>
               </size>
              </property>
             </spacer>
            </item>
            <item>
             <widget class="QCheckBox" name="checkBoxIMGR">
              <property name="toolTip">
               <string>Code_Saturne key word: IMGR</string>
              </property>
              <property name="text">
               <string/>
              </property>
             </widget>
            </item>
           </layout>
          </item>
          <item>
           <spacer name="horizontalSpacer_3">
            <property name="orientation">
             <enum>Qt::Horizontal</enum>
            </property>
            <property name="sizeHint" stdset="0">
             <size>
              <width>13</width>
              <height>20</height>
             </size>
            </property>
           </spacer>
          </item>
         </layout>
        </item>
        <item>
         <widget class="Line" name="line_2">
          <property name="orientation">
           <enum>Qt::Horizontal</enum>
          </property>
         </widget>
        </item>
        <item>
         <layout class="QHBoxLayout">
          <item>
           <spacer>
            <property name="orientation">
             <enum>Qt::Horizontal</enum>
            </property>
            <property name="sizeHint" stdset="0">
             <size>
              <width>16</width>
              <height>16</height>
             </size>
            </property>
           </spacer>
          </item>
          <item>
           <widget class="QFrame" name="frame_5">
            <property name="minimumSize">
             <size>
              <width>390</width>
              <height>16</height>
             </size>
            </property>
            <property name="frameShape">
             <enum>QFrame::NoFrame</enum>
            </property>
            <property name="frameShadow">
             <enum>QFrame::Raised</enum>
            </property>
            <layout class="QGridLayout">
             <property name="margin">
              <number>0</number>
             </property>
             <item row="0" column="0">
              <layout class="QHBoxLayout">
               <item>
                <widget class="QLabel" name="labelIPUCOU">
                 <property name="toolTip">
                  <string>Code_Saturne key word: IPUCOU</string>
                 </property>
                 <property name="text">
                  <string>Pseudo-coupled velocity-pressure solver</string>
                 </property>
                </widget>
               </item>
               <item>
                <spacer>
                 <property name="orientation">
                  <enum>Qt::Horizontal</enum>
                 </property>
                 <property name="sizeHint" stdset="0">
                  <size>
                   <width>16</width>
                   <height>16</height>
                  </size>
                 </property>
                </spacer>
               </item>
               <item>
                <widget class="QCheckBox" name="checkBoxIPUCOU">
                 <property name="toolTip">
                  <string>Code_Saturne key word: IPUCOU</string>
                 </property>
                 <property name="text">
                  <string/>
                 </property>
                </widget>
               </item>
              </layout>
             </item>
            </layout>
           </widget>
          </item>
          <item>
           <spacer>
            <property name="orientation">
             <enum>Qt::Horizontal</enum>
            </property>
            <property name="sizeHint" stdset="0">
             <size>
              <width>16</width>
              <height>16</height>
             </size>
            </property>
           </spacer>
          </item>
         </layout>
        </item>
        <item>
         <widget class="Line" name="line_3">
          <property name="orientation">
           <enum>Qt::Horizontal</enum>
          </property>
         </widget>
        </item>
        <item>
         <layout class="QHBoxLayout">
          <item>
           <spacer>
            <property name="orientation">
             <enum>Qt::Horizontal</enum>
            </property>
            <property name="sizeHint" stdset="0">
             <size>
              <width>16</width>
              <height>16</height>
             </size>
            </property>
           </spacer>
          </item>
          <item>
           <widget class="QFrame" name="frame_4">
            <property name="minimumSize">
             <size>
              <width>390</width>
              <height>16</height>
             </size>
            </property>
            <property name="frameShape">
             <enum>QFrame::NoFrame</enum>
            </property>
            <property name="frameShadow">
             <enum>QFrame::Raised</enum>
            </property>
            <layout class="QGridLayout">
             <property name="margin">
              <number>0</number>
             </property>
             <item row="0" column="0">
              <layout class="QHBoxLayout">
               <item>
                <widget class="QLabel" name="labelIVISSE">
                 <property name="toolTip">
                  <string>Code_Saturne key word: IVISSE</string>
                 </property>
                 <property name="text">
                  <string>Handling of transposed gradient and divergence
source terms in momentum equation</string>
                 </property>
                </widget>
               </item>
               <item>
                <spacer>
                 <property name="orientation">
                  <enum>Qt::Horizontal</enum>
                 </property>
                 <property name="sizeHint" stdset="0">
                  <size>
                   <width>16</width>
                   <height>16</height>
                  </size>
                 </property>
                </spacer>
               </item>
               <item>
                <widget class="QCheckBox" name="checkBoxIVISSE">
                 <property name="toolTip">
                  <string>Code_Saturne key word: IVISSE</string>
                 </property>
                 <property name="text">
                  <string/>
                 </property>
                </widget>
               </item>
              </layout>
             </item>
            </layout>
           </widget>
          </item>
          <item>
           <spacer>
            <property name="orientation">
             <enum>Qt::Horizontal</enum>
            </property>
            <property name="sizeHint" stdset="0">
             <size>
              <width>20</width>
              <height>20</height>
             </size>
            </property>
           </spacer>
          </item>
         </layout>
        </item>
        <item>
         <widget class="Line" name="line_4">
          <property name="orientation">
           <enum>Qt::Horizontal</enum>
          </property>
         </widget>
        </item>
        <item>
         <layout class="QHBoxLayout">
          <item>
           <spacer>
            <property name="orientation">
             <enum>Qt::Horizontal</enum>
            </property>
            <property name="sizeHint" stdset="0">
             <size>
              <width>16</width>
              <height>16</height>
             </size>
            </property>
           </spacer>
          </item>
          <item>
           <widget class="QFrame" name="frame_3">
            <property name="minimumSize">
             <size>
              <width>390</width>
              <height>16</height>
             </size>
            </property>
            <property name="frameShape">
             <enum>QFrame::NoFrame</enum>
            </property>
            <property name="frameShadow">
             <enum>QFrame::Raised</enum>
            </property>
            <layout class="QGridLayout">
             <property name="margin">
              <number>0</number>
             </property>
             <item row="0" column="0">
              <layout class="QHBoxLayout">
               <item>
                <widget class="QLabel" name="labelEXTRAG">
                 <property name="minimumSize">
                  <size>
                   <width>0</width>
                   <height>25</height>
                  </size>
                 </property>
                 <property name="toolTip">
                  <string>Code_Saturne key word: EXTRAG</string>
                 </property>
                 <property name="text">
                  <string>Extrapolation of pressure gradient
on domain boundary</string>
                 </property>
                </widget>
               </item>
               <item>
                <spacer>
                 <property name="orientation">
                  <enum>Qt::Horizontal</enum>
                 </property>
                 <property name="sizeHint" stdset="0">
                  <size>
                   <width>16</width>
                   <height>16</height>
                  </size>
                 </property>
                </spacer>
               </item>
               <item>
                <widget class="QComboBox" name="comboBoxEXTRAG">
                 <property name="toolTip">
                  <string>Code_Saturne key word: EXTRAG</string>
                 </property>
                </widget>
               </item>
              </layout>
             </item>
            </layout>
           </widget>
          </item>
          <item>
           <spacer>
            <property name="orientation">
             <enum>Qt::Horizontal</enum>
            </property>
            <property name="sizeHint" stdset="0">
             <size>
              <width>16</width>
              <height>16</height>
             </size>
            </property>
           </spacer>
          </item>
         </layout>
        </item>
        <item>
         <widget class="Line" name="line_5">
          <property name="orientation">
           <enum>Qt::Horizontal</enum>
          </property>
         </widget>
        </item>
        <item>
         <layout class="QHBoxLayout">
          <item>
           <spacer>
            <property name="orientation">
             <enum>Qt::Horizontal</enum>
            </property>
            <property name="sizeHint" stdset="0">
             <size>
              <width>16</width>
              <height>16</height>
             </size>
            </property>
           </spacer>
          </item>
          <item>
           <widget class="QFrame" name="frame_2">
            <property name="minimumSize">
             <size>
              <width>390</width>
              <height>16</height>
             </size>
            </property>
            <property name="frameShape">
             <enum>QFrame::NoFrame</enum>
            </property>
            <property name="frameShadow">
             <enum>QFrame::Raised</enum>
            </property>
            <layout class="QGridLayout">
             <property name="margin">
              <number>0</number>
             </property>
             <item row="0" column="0">
              <layout class="QHBoxLayout">
               <item>
                <widget class="QLabel" name="labelRELAXP">
                 <property name="toolTip">
                  <string>Code_Saturne key word: RELAXP</string>
                 </property>
                 <property name="text">
                  <string>Relaxation of pressure increase</string>
                 </property>
                </widget>
               </item>
               <item>
                <spacer>
                 <property name="orientation">
                  <enum>Qt::Horizontal</enum>
                 </property>
                 <property name="sizeHint" stdset="0">
                  <size>
                   <width>16</width>
                   <height>21</height>
                  </size>
                 </property>
                </spacer>
               </item>
               <item>
                <widget class="QLineEdit" name="lineEditRELAXP">
                 <property name="sizePolicy">
                  <sizepolicy hsizetype="Preferred" vsizetype="Fixed">
                   <horstretch>0</horstretch>
                   <verstretch>0</verstretch>
                  </sizepolicy>
                 </property>
                 <property name="minimumSize">
                  <size>
                   <width>60</width>
                   <height>0</height>
                  </size>
                 </property>
                 <property name="toolTip">
                  <string>Code_Saturne key word: RELAXP</string>
                 </property>
                </widget>
               </item>
              </layout>
             </item>
            </layout>
           </widget>
          </item>
          <item>
           <spacer>
            <property name="orientation">
             <enum>Qt::Horizontal</enum>
            </property>
            <property name="sizeHint" stdset="0">
             <size>
              <width>16</width>
              <height>16</height>
             </size>
            </property>
           </spacer>
          </item>
         </layout>
        </item>
        <item>
         <widget class="Line" name="line_6">
          <property name="orientation">
           <enum>Qt::Horizontal</enum>
          </property>
         </widget>
        </item>
        <item>
         <layout class="QHBoxLayout">
          <item>
           <spacer>
            <property name="orientation">
             <enum>Qt::Horizontal</enum>
            </property>
            <property name="sizeHint" stdset="0">
             <size>
              <width>16</width>
              <height>16</height>
             </size>
            </property>
           </spacer>
          </item>
          <item>
           <widget class="QFrame" name="frame">
            <property name="minimumSize">
             <size>
              <width>390</width>
              <height>16</height>
             </size>
            </property>
            <property name="frameShape">
             <enum>QFrame::NoFrame</enum>
            </property>
            <property name="frameShadow">
             <enum>QFrame::Raised</enum>
            </property>
            <layout class="QGridLayout">
             <property name="margin">
              <number>0</number>
             </property>
             <item row="0" column="0">
              <layout class="QHBoxLayout">
               <item>
                <widget class="QLabel" name="labelSRROM">
                 <property name="toolTip">
                  <string>Code_Saturne key word: SRROM</string>
                 </property>
                 <property name="text">
                  <string>Relaxation of density</string>
                 </property>
                </widget>
               </item>
               <item>
                <spacer>
                 <property name="orientation">
                  <enum>Qt::Horizontal</enum>
                 </property>
                 <property name="sizeHint" stdset="0">
                  <size>
                   <width>16</width>
                   <height>16</height>
                  </size>
                 </property>
                </spacer>
               </item>
               <item>
                <widget class="QLineEdit" name="lineEditSRROM">
                 <property name="sizePolicy">
                  <sizepolicy hsizetype="Preferred" vsizetype="Fixed">
                   <horstretch>0</horstretch>
                   <verstretch>0</verstretch>
                  </sizepolicy>
                 </property>
                 <property name="minimumSize">
                  <size>
                   <width>60</width>
                   <height>0</height>
                  </size>
                 </property>
                 <property name="toolTip">
                  <string>Code_Saturne key word: SRROM</string>
                 </property>
                </widget>
               </item>
              </layout>
             </item>
            </layout>
           </widget>
          </item>
          <item>
           <spacer>
            <property name="orientation">
             <enum>Qt::Horizontal</enum>
            </property>
            <property name="sizeHint" stdset="0">
             <size>
              <width>16</width>
              <height>16</height>
             </size>
            </property>
           </spacer>
          </item>
         </layout>
        </item>
        <item>
         <widget class="Line" name="line_7">
          <property name="orientation">
           <enum>Qt::Horizontal</enum>
          </property>
         </widget>
        </item>
        <item>
         <layout class="QHBoxLayout" name="_2">
          <property name="spacing">
           <number>6</number>
          </property>
          <property name="margin">
           <number>0</number>
          </property>
          <item>
           <spacer>
            <property name="orientation">
             <enum>Qt::Horizontal</enum>
            </property>
            <property name="sizeHint" stdset="0">
             <size>
              <width>16</width>
              <height>16</height>
             </size>
            </property>
           </spacer>
          </item>
          <item>
           <widget class="QFrame" name="frame_8">
            <property name="minimumSize">
             <size>
              <width>390</width>
              <height>16</height>
             </size>
            </property>
            <property name="frameShape">
             <enum>QFrame::NoFrame</enum>
            </property>
            <property name="frameShadow">
             <enum>QFrame::Raised</enum>
            </property>
            <layout class="QGridLayout" name="_3">
             <property name="margin">
              <number>0</number>
             </property>
             <property name="spacing">
              <number>6</number>
             </property>
             <item row="0" column="0">
              <layout class="QHBoxLayout" name="_4">
               <property name="spacing">
                <number>6</number>
               </property>
               <property name="margin">
                <number>0</number>
               </property>
               <item>
                <widget class="QLabel" name="labelImprovedPressure">
                 <property name="toolTip">
                  <string>Code_Saturne key word: IPUCOU</string>
                 </property>
                 <property name="text">
                  <string>Improved pressure interpolation in stratified flow</string>
                 </property>
                </widget>
               </item>
               <item>
                <spacer>
                 <property name="orientation">
                  <enum>Qt::Horizontal</enum>
                 </property>
                 <property name="sizeHint" stdset="0">
                  <size>
                   <width>16</width>
                   <height>16</height>
                  </size>
                 </property>
                </spacer>
               </item>
               <item>
                <widget class="QCheckBox" name="checkBoxImprovedPressure">
                 <property name="toolTip">
                  <string>Code_Saturne key word: IPHYDR</string>
                 </property>
                 <property name="text">
                  <string/>
                 </property>
                </widget>
               </item>
              </layout>
             </item>
            </layout>
           </widget>
          </item>
          <item>
           <spacer>
            <property name="orientation">
             <enum>Qt::Horizontal</enum>
            </property>
            <property name="sizeHint" stdset="0">
             <size>
              <width>16</width>
              <height>16</height>
             </size>
            </property>
           </spacer>
          </item>
         </layout>
        </item>
        <item>
         <widget class="Line" name="line_8">
          <property name="orientation">
           <enum>Qt::Horizontal</enum>
          </property>
         </widget>
        </item>
        <item>
         <layout class="QHBoxLayout" name="horizontalLayout_4">
          <item>
           <spacer>
            <property name="orientation">
             <enum>Qt::Horizontal</enum>
            </property>
            <property name="sizeHint" stdset="0">
             <size>
              <width>13</width>
              <height>16</height>
             </size>
            </property>
           </spacer>
          </item>
          <item>
           <layout class="QHBoxLayout" name="horizontalLayout_3">
            <item>
             <widget class="QLabel" name="labelNTERUP">
              <property name="toolTip">
               <string>Code_Saturne key word: EXTRAG</string>
              </property>
              <property name="text">
               <string>Velocity-Pressure algorithm</string>
              </property>
             </widget>
            </item>
            <item>
             <spacer>
              <property name="orientation">
               <enum>Qt::Horizontal</enum>
              </property>
              <property name="sizeHint" stdset="0">
               <size>
                <width>58</width>
                <height>30</height>
               </size>
              </property>
             </spacer>
            </item>
            <item>
             <widget class="QComboBox" name="comboBoxNTERUP">
              <property name="toolTip">
               <string>Code_Saturne key word: NTERUP</string>
              </property>
             </widget>
            </item>
            <item>
             <spacer>
              <property name="orientation">
               <enum>Qt::Horizontal</enum>
              </property>
              <property name="sizeHint" stdset="0">
               <size>
                <width>13</width>
                <height>20</height>
               </size>
              </property>
             </spacer>
            </item>
            <item>
             <widget class="QSpinBox" name="spinBoxNTERUP">
              <property name="toolTip">
               <string>Code_Saturne key word: NTERUP</string>
              </property>
              <property name="minimum">
               <number>2</number>
              </property>
             </widget>
            </item>
           </layout>
          </item>
          <item>
           <spacer>
            <property name="orientation">
             <enum>Qt::Horizontal</enum>
            </property>
            <property name="sizeHint" stdset="0">
             <size>
              <width>13</width>
              <height>20</height>
             </size>
            </property>
           </spacer>
          </item>
         </layout>
        </item>
       </layout>
      </item>
      <item row="0" column="2">
       <spacer name="horizontalSpacer_5">
        <property name="orientation">
         <enum>Qt::Horizontal</enum>
        </property>
        <property name="sizeHint" stdset="0">
         <size>
          <width>2</width>
          <height>20</height>
         </size>
        </property>
       </spacer>
      </item>
     </layout>
    </widget>
   </item>
   <item row="1" column="0">
    <spacer>
     <property name="orientation">
      <enum>Qt::Vertical</enum>
     </property>
     <property name="sizeHint" stdset="0">
      <size>
       <width>20</width>
       <height>20</height>
      </size>
     </property>
    </spacer>
   </item>
  </layout>
 </widget>
 <resources/>
 <connections/>
</ui>
