<?xml version="1.0" encoding="UTF-8"?>
<ui version="4.0">
 <class>OutputControlForm</class>
 <widget class="QWidget" name="OutputControlForm">
  <property name="geometry">
   <rect>
    <x>0</x>
    <y>0</y>
    <width>655</width>
    <height>485</height>
   </rect>
  </property>
  <property name="windowTitle">
   <string>Form</string>
  </property>
  <layout class="QGridLayout" name="gridLayout_7">
   <item row="0" column="0">
    <widget class="QTabWidget" name="tabWidget">
     <property name="font">
      <font>
       <weight>50</weight>
       <italic>false</italic>
       <bold>false</bold>
      </font>
     </property>
     <property name="currentIndex">
      <number>0</number>
     </property>
     <widget class="QWidget" name="tabOUTPUT">
      <attribute name="title">
       <string>Output Control</string>
      </attribute>
      <layout class="QGridLayout" name="gridLayout_6">
       <item row="0" column="0">
        <widget class="QGroupBox" name="groupBoxListings">
         <property name="title">
          <string>Log frequency</string>
         </property>
         <layout class="QGridLayout" name="gridLayout_5">
          <item row="0" column="0">
           <layout class="QHBoxLayout">
            <property name="spacing">
             <number>6</number>
            </property>
            <property name="margin">
             <number>0</number>
            </property>
            <item>
             <spacer>
              <property name="orientation">
               <enum>Qt::Horizontal</enum>
              </property>
              <property name="sizeHint" stdset="0">
               <size>
                <width>16</width>
                <height>20</height>
               </size>
              </property>
             </spacer>
            </item>
            <item>
             <widget class="QComboBox" name="comboBoxOutput">
              <property name="minimumSize">
               <size>
                <width>275</width>
                <height>0</height>
               </size>
              </property>
              <property name="maximumSize">
               <size>
                <width>275</width>
                <height>16777215</height>
               </size>
              </property>
              <property name="toolTip">
               <string>Code_Saturne key word: NTLIST</string>
              </property>
             </widget>
            </item>
            <item>
             <widget class="QLineEdit" name="lineEditNTLIST">
              <property name="maximumSize">
               <size>
                <width>60</width>
                <height>16777215</height>
               </size>
              </property>
              <property name="toolTip">
               <string>Code_Saturne key word: NTLIST</string>
              </property>
             </widget>
            </item>
            <item>
             <spacer>
              <property name="orientation">
               <enum>Qt::Horizontal</enum>
              </property>
              <property name="sizeHint" stdset="0">
               <size>
                <width>16</width>
                <height>16</height>
               </size>
              </property>
             </spacer>
            </item>
           </layout>
          </item>
          <item row="1" column="0">
           <widget class="QGroupBox" name="groupBoxListingParticles">
            <property name="title">
             <string>Log frequency for particles</string>
            </property>
            <layout class="QGridLayout" name="gridLayout_4">
             <item row="0" column="0">
              <layout class="QGridLayout" name="_2">
               <item row="0" column="0">
                <spacer>
                 <property name="orientation">
                  <enum>Qt::Horizontal</enum>
                 </property>
                 <property name="sizeHint" stdset="0">
                  <size>
                   <width>40</width>
                   <height>20</height>
                  </size>
                 </property>
                </spacer>
               </item>
               <item row="0" column="1">
                <widget class="QComboBox" name="comboBoxNTLAL">
                 <property name="minimumSize">
                  <size>
                   <width>250</width>
                   <height>0</height>
                  </size>
                 </property>
                 <property name="toolTip">
                  <string>Code_Saturne key word: NTLAL</string>
                 </property>
                </widget>
               </item>
               <item row="0" column="2">
                <widget class="QLineEdit" name="lineEditNTLAL">
                 <property name="minimumSize">
                  <size>
                   <width>60</width>
                   <height>0</height>
                  </size>
                 </property>
                 <property name="maximumSize">
                  <size>
                   <width>60</width>
                   <height>16777215</height>
                  </size>
                 </property>
                 <property name="toolTip">
                  <string>Code_Saturne key word: NTLAL</string>
                 </property>
                </widget>
               </item>
               <item row="0" column="3">
                <spacer>
                 <property name="orientation">
                  <enum>Qt::Horizontal</enum>
                 </property>
                 <property name="sizeHint" stdset="0">
                  <size>
                   <width>40</width>
                   <height>20</height>
                  </size>
                 </property>
                </spacer>
               </item>
              </layout>
             </item>
            </layout>
           </widget>
          </item>
          <item row="2" column="0">
           <spacer name="verticalSpacer">
            <property name="orientation">
             <enum>Qt::Vertical</enum>
            </property>
            <property name="sizeHint" stdset="0">
             <size>
              <width>20</width>
              <height>40</height>
             </size>
            </property>
           </spacer>
          </item>
         </layout>
        </widget>
       </item>
      </layout>
     </widget>
     <widget class="QWidget" name="tab">
      <attribute name="title">
       <string>Writer</string>
      </attribute>
      <layout class="QGridLayout">
       <property name="margin">
        <number>9</number>
       </property>
       <property name="spacing">
        <number>6</number>
       </property>
       <item row="3" column="0">
        <widget class="QGroupBox" name="groupBoxOptions">
         <property name="title">
          <string>Options</string>
         </property>
         <layout class="QGridLayout">
          <property name="margin">
           <number>9</number>
          </property>
          <property name="spacing">
           <number>6</number>
          </property>
          <item row="0" column="0">
           <layout class="QHBoxLayout">
            <property name="spacing">
             <number>6</number>
            </property>
            <property name="margin">
             <number>0</number>
            </property>
            <item>
             <spacer>
              <property name="orientation">
               <enum>Qt::Horizontal</enum>
              </property>
              <property name="sizeHint" stdset="0">
               <size>
                <width>16</width>
                <height>16</height>
               </size>
              </property>
             </spacer>
            </item>
            <item>
             <layout class="QGridLayout">
              <property name="margin">
               <number>0</number>
              </property>
              <property name="spacing">
               <number>6</number>
              </property>
              <item row="0" column="0">
               <widget class="QLabel" name="labelformat">
                <property name="text">
                 <string>format</string>
                </property>
               </widget>
              </item>
              <item row="0" column="1">
               <widget class="QComboBox" name="comboBoxFormat">
                <property name="minimumSize">
                 <size>
                  <width>120</width>
                  <height>0</height>
                 </size>
                </property>
               </widget>
              </item>
              <item row="1" column="0">
               <widget class="QLabel" name="labelPolygon">
                <property name="text">
                 <string>polygons</string>
                </property>
               </widget>
              </item>
              <item row="1" column="1">
               <widget class="QComboBox" name="comboBoxPolygon">
                <property name="minimumSize">
                 <size>
                  <width>120</width>
                  <height>0</height>
                 </size>
                </property>
               </widget>
              </item>
              <item row="2" column="0">
               <widget class="QLabel" name="labelPolyhedra">
                <property name="text">
                 <string>polyhedra</string>
                </property>
               </widget>
              </item>
              <item row="2" column="1">
               <widget class="QComboBox" name="comboBoxPolyhedra">
                <property name="minimumSize">
                 <size>
                  <width>120</width>
                  <height>0</height>
                 </size>
                </property>
               </widget>
              </item>
             </layout>
            </item>
            <item>
             <spacer>
              <property name="orientation">
               <enum>Qt::Horizontal</enum>
              </property>
              <property name="sizeHint" stdset="0">
               <size>
                <width>16</width>
                <height>16</height>
               </size>
              </property>
             </spacer>
            </item>
           </layout>
          </item>
         </layout>
        </widget>
       </item>
       <item row="0" column="0">
        <layout class="QVBoxLayout">
         <property name="spacing">
          <number>6</number>
         </property>
         <property name="margin">
          <number>0</number>
         </property>
         <item>
          <widget class="QTableView" name="tableViewWriter"/>
         </item>
         <item>
          <layout class="QHBoxLayout">
           <property name="spacing">
            <number>6</number>
           </property>
           <property name="margin">
            <number>0</number>
           </property>
           <item>
            <spacer>
             <property name="orientation">
              <enum>Qt::Horizontal</enum>
             </property>
             <property name="sizeHint" stdset="0">
              <size>
               <width>40</width>
               <height>20</height>
              </size>
             </property>
            </spacer>
           </item>
           <item>
            <widget class="QPushButton" name="pushButtonAddWriter">
             <property name="text">
              <string/>
             </property>
             <property name="icon">
              <iconset resource="resources_pages.qrc">
               <normaloff>:/new/prefix1/icons/22x22/add.png</normaloff>:/new/prefix1/icons/22x22/add.png</iconset>
             </property>
            </widget>
           </item>
           <item>
            <widget class="QPushButton" name="pushButtonDeleteWriter">
             <property name="text">
              <string/>
             </property>
             <property name="icon">
              <iconset resource="resources_pages.qrc">
               <normaloff>:/new/prefix1/icons/22x22/remove.png</normaloff>:/new/prefix1/icons/22x22/remove.png</iconset>
             </property>
            </widget>
           </item>
           <item>
            <spacer>
             <property name="orientation">
              <enum>Qt::Horizontal</enum>
             </property>
             <property name="sizeHint" stdset="0">
              <size>
               <width>40</width>
               <height>20</height>
              </size>
             </property>
            </spacer>
           </item>
          </layout>
         </item>
        </layout>
       </item>
       <item row="1" column="0">
        <widget class="QGroupBox" name="groupBoxFrequency">
         <property name="title">
          <string>Frequency</string>
         </property>
         <layout class="QGridLayout">
          <property name="margin">
           <number>9</number>
          </property>
          <property name="spacing">
           <number>6</number>
          </property>
          <item row="0" column="0">
           <spacer>
            <property name="orientation">
             <enum>Qt::Horizontal</enum>
            </property>
            <property name="sizeHint" stdset="0">
             <size>
              <width>40</width>
              <height>20</height>
             </size>
            </property>
           </spacer>
          </item>
          <item row="0" column="1">
           <widget class="QComboBox" name="comboBoxFrequency">
            <property name="minimumSize">
             <size>
              <width>325</width>
              <height>0</height>
             </size>
            </property>
           </widget>
          </item>
          <item row="0" column="2">
           <widget class="QLineEdit" name="lineEditFrequency">
            <property name="minimumSize">
             <size>
              <width>100</width>
              <height>0</height>
             </size>
            </property>
           </widget>
          </item>
          <item row="0" column="3">
           <widget class="QLineEdit" name="lineEditFrequencyTime">
            <property name="minimumSize">
             <size>
              <width>100</width>
              <height>0</height>
             </size>
            </property>
           </widget>
          </item>
          <item row="0" column="4">
           <widget class="QPushButton" name="pushButtonFrequency">
            <property name="text">
             <string/>
            </property>
            <property name="icon">
             <iconset resource="resources_pages.qrc">
              <normaloff>:/new/prefix1/icons/22x22/preferences-system.png</normaloff>:/new/prefix1/icons/22x22/preferences-system.png</iconset>
            </property>
           </widget>
          </item>
          <item row="0" column="5">
           <spacer>
            <property name="orientation">
             <enum>Qt::Horizontal</enum>
            </property>
            <property name="sizeHint" stdset="0">
             <size>
              <width>40</width>
              <height>20</height>
             </size>
            </property>
           </spacer>
          </item>
          <item row="1" column="1">
           <widget class="QCheckBox" name="checkBoxOutputEnd">
            <property name="text">
             <string>Output at end of calculation</string>
            </property>
           </widget>
          </item>
         </layout>
        </widget>
       </item>
       <item row="2" column="0">
        <widget class="QGroupBox" name="groupBoxTimeDependency">
         <property name="title">
          <string>Time-dependency</string>
         </property>
         <layout class="QGridLayout">
          <property name="margin">
           <number>9</number>
          </property>
          <property name="spacing">
           <number>6</number>
          </property>
          <item row="0" column="2">
           <spacer>
            <property name="orientation">
             <enum>Qt::Horizontal</enum>
            </property>
            <property name="sizeHint" stdset="0">
             <size>
              <width>40</width>
              <height>20</height>
             </size>
            </property>
           </spacer>
          </item>
          <item row="0" column="0">
           <spacer>
            <property name="orientation">
             <enum>Qt::Horizontal</enum>
            </property>
            <property name="sizeHint" stdset="0">
             <size>
              <width>40</width>
              <height>20</height>
             </size>
            </property>
           </spacer>
          </item>
          <item row="0" column="1">
           <widget class="QComboBox" name="comboBoxTimeDependency"/>
          </item>
         </layout>
        </widget>
       </item>
      </layout>
     </widget>
     <widget class="QWidget" name="tab_2">
      <attribute name="title">
       <string>Mesh</string>
      </attribute>
      <layout class="QGridLayout">
       <property name="margin">
        <number>9</number>
       </property>
       <property name="spacing">
        <number>6</number>
       </property>
       <item row="0" column="0">
        <layout class="QVBoxLayout">
         <property name="spacing">
          <number>6</number>
         </property>
         <property name="margin">
          <number>0</number>
         </property>
         <item>
          <widget class="QTableView" name="tableViewMesh"/>
         </item>
         <item>
          <layout class="QHBoxLayout">
           <property name="spacing">
            <number>6</number>
           </property>
           <property name="margin">
            <number>0</number>
           </property>
           <item>
            <spacer>
             <property name="orientation">
              <enum>Qt::Horizontal</enum>
             </property>
             <property name="sizeHint" stdset="0">
              <size>
               <width>40</width>
               <height>20</height>
              </size>
             </property>
            </spacer>
           </item>
           <item>
            <widget class="QPushButton" name="pushButtonAddMesh">
             <property name="text">
              <string/>
             </property>
             <property name="icon">
              <iconset resource="resources_pages.qrc">
               <normaloff>:/new/prefix1/icons/22x22/add.png</normaloff>:/new/prefix1/icons/22x22/add.png</iconset>
             </property>
            </widget>
           </item>
           <item>
            <widget class="QPushButton" name="pushButtonDeleteMesh">
             <property name="text">
              <string/>
             </property>
             <property name="icon">
              <iconset resource="resources_pages.qrc">
               <normaloff>:/new/prefix1/icons/22x22/remove.png</normaloff>:/new/prefix1/icons/22x22/remove.png</iconset>
             </property>
            </widget>
           </item>
           <item>
            <spacer>
             <property name="orientation">
              <enum>Qt::Horizontal</enum>
             </property>
             <property name="sizeHint" stdset="0">
              <size>
               <width>40</width>
               <height>20</height>
              </size>
             </property>
            </spacer>
           </item>
          </layout>
         </item>
        </layout>
       </item>
       <item row="1" column="0">
        <widget class="QGroupBox" name="groupBoxVariable">
         <property name="title">
          <string>Variables</string>
         </property>
         <layout class="QGridLayout">
          <property name="margin">
           <number>9</number>
          </property>
          <property name="spacing">
           <number>6</number>
          </property>
          <item row="0" column="2">
           <spacer>
            <property name="orientation">
             <enum>Qt::Horizontal</enum>
            </property>
            <property name="sizeHint" stdset="0">
             <size>
              <width>40</width>
              <height>20</height>
             </size>
            </property>
           </spacer>
          </item>
          <item row="0" column="0">
           <spacer>
            <property name="orientation">
             <enum>Qt::Horizontal</enum>
            </property>
            <property name="sizeHint" stdset="0">
             <size>
              <width>40</width>
              <height>20</height>
             </size>
            </property>
           </spacer>
          </item>
          <item row="0" column="1">
           <widget class="QCheckBox" name="checkBoxAllVariables">
            <property name="text">
             <string>Auto</string>
            </property>
           </widget>
          </item>
         </layout>
        </widget>
       </item>
       <item row="2" column="0">
        <widget class="QGroupBox" name="groupBoxAssociatedWriter">
         <property name="title">
          <string>Associated Writers</string>
         </property>
         <layout class="QGridLayout">
          <property name="margin">
           <number>9</number>
          </property>
          <property name="spacing">
           <number>6</number>
          </property>
          <item row="0" column="0">
           <layout class="QHBoxLayout">
            <property name="spacing">
             <number>6</number>
            </property>
            <property name="margin">
             <number>0</number>
            </property>
            <item>
             <spacer>
              <property name="orientation">
               <enum>Qt::Horizontal</enum>
              </property>
              <property name="sizeHint" stdset="0">
               <size>
                <width>40</width>
                <height>20</height>
               </size>
              </property>
             </spacer>
            </item>
            <item>
             <widget class="QTableView" name="tableViewAssociatedWriter"/>
            </item>
            <item>
             <spacer>
              <property name="orientation">
               <enum>Qt::Horizontal</enum>
              </property>
              <property name="sizeHint" stdset="0">
               <size>
                <width>40</width>
                <height>20</height>
               </size>
              </property>
             </spacer>
            </item>
           </layout>
          </item>
          <item row="1" column="0">
           <layout class="QHBoxLayout">
            <property name="spacing">
             <number>6</number>
            </property>
            <property name="margin">
             <number>0</number>
            </property>
            <item>
             <spacer>
              <property name="orientation">
               <enum>Qt::Horizontal</enum>
              </property>
              <property name="sizeHint" stdset="0">
               <size>
                <width>40</width>
                <height>20</height>
               </size>
              </property>
             </spacer>
            </item>
            <item>
             <widget class="QPushButton" name="pushButtonAddAssociatedWriter">
              <property name="text">
               <string/>
              </property>
              <property name="icon">
               <iconset resource="resources_pages.qrc">
                <normaloff>:/new/prefix1/icons/22x22/add.png</normaloff>:/new/prefix1/icons/22x22/add.png</iconset>
              </property>
             </widget>
            </item>
            <item>
             <widget class="QPushButton" name="pushButtonDeleteAssociatedWriter">
              <property name="text">
               <string/>
              </property>
              <property name="icon">
               <iconset resource="resources_pages.qrc">
                <normaloff>:/new/prefix1/icons/22x22/remove.png</normaloff>:/new/prefix1/icons/22x22/remove.png</iconset>
              </property>
             </widget>
            </item>
            <item>
             <spacer>
              <property name="orientation">
               <enum>Qt::Horizontal</enum>
              </property>
              <property name="sizeHint" stdset="0">
               <size>
                <width>40</width>
                <height>20</height>
               </size>
              </property>
             </spacer>
            </item>
           </layout>
          </item>
         </layout>
        </widget>
       </item>
      </layout>
     </widget>
     <widget class="QWidget" name="tab_lagrangian">
      <attribute name="title">
       <string>Particles mesh</string>
      </attribute>
      <layout class="QGridLayout">
       <property name="margin">
        <number>9</number>
       </property>
       <property name="spacing">
        <number>6</number>
       </property>
       <item row="0" column="0">
        <layout class="QVBoxLayout">
         <property name="spacing">
          <number>6</number>
         </property>
         <property name="margin">
          <number>0</number>
         </property>
         <item>
          <widget class="QTableView" name="tableViewLagrangianMesh"/>
         </item>
         <item>
          <layout class="QHBoxLayout">
           <property name="spacing">
            <number>6</number>
           </property>
           <property name="margin">
            <number>0</number>
           </property>
           <item>
            <spacer>
             <property name="orientation">
              <enum>Qt::Horizontal</enum>
             </property>
             <property name="sizeHint" stdset="0">
              <size>
               <width>40</width>
               <height>20</height>
              </size>
             </property>
            </spacer>
           </item>
           <item>
            <widget class="QPushButton" name="pushButtonAddLagrangianMesh">
             <property name="text">
              <string/>
             </property>
             <property name="icon">
              <iconset resource="resources_pages.qrc">
               <normaloff>:/new/prefix1/icons/22x22/add.png</normaloff>:/new/prefix1/icons/22x22/add.png</iconset>
             </property>
            </widget>
           </item>
           <item>
            <widget class="QPushButton" name="pushButtonDeleteLagrangianMesh">
             <property name="text">
              <string/>
             </property>
             <property name="icon">
              <iconset resource="resources_pages.qrc">
               <normaloff>:/new/prefix1/icons/22x22/remove.png</normaloff>:/new/prefix1/icons/22x22/remove.png</iconset>
             </property>
            </widget>
           </item>
           <item>
            <spacer>
             <property name="orientation">
              <enum>Qt::Horizontal</enum>
             </property>
             <property name="sizeHint" stdset="0">
              <size>
               <width>40</width>
               <height>20</height>
              </size>
             </property>
            </spacer>
           </item>
          </layout>
         </item>
        </layout>
       </item>
       <item row="1" column="0">
        <widget class="QGroupBox" name="groupBoxLagrangianVariable">
         <property name="title">
          <string>Variables</string>
         </property>
         <layout class="QGridLayout">
          <property name="margin">
           <number>9</number>
          </property>
          <property name="spacing">
           <number>6</number>
          </property>
          <item row="0" column="2">
           <spacer>
            <property name="orientation">
             <enum>Qt::Horizontal</enum>
            </property>
            <property name="sizeHint" stdset="0">
             <size>
              <width>40</width>
              <height>20</height>
             </size>
            </property>
           </spacer>
          </item>
          <item row="0" column="0">
           <spacer>
            <property name="orientation">
             <enum>Qt::Horizontal</enum>
            </property>
            <property name="sizeHint" stdset="0">
             <size>
              <width>40</width>
              <height>20</height>
             </size>
            </property>
           </spacer>
          </item>
          <item row="0" column="1">
           <widget class="QCheckBox" name="checkBoxAllLagrangianVariables">
            <property name="text">
             <string>Auto</string>
            </property>
           </widget>
          </item>
         </layout>
        </widget>
       </item>
       <item row="2" column="0">
        <widget class="QGroupBox" name="groupBoxAssociatedLagrangianWriter">
         <property name="title">
          <string>Associated Writers</string>
         </property>
         <layout class="QGridLayout">
          <property name="margin">
           <number>9</number>
          </property>
          <property name="spacing">
           <number>6</number>
          </property>
          <item row="0" column="0">
           <layout class="QHBoxLayout">
            <property name="spacing">
             <number>6</number>
            </property>
            <property name="margin">
             <number>0</number>
            </property>
            <item>
             <spacer>
              <property name="orientation">
               <enum>Qt::Horizontal</enum>
              </property>
              <property name="sizeHint" stdset="0">
               <size>
                <width>40</width>
                <height>20</height>
               </size>
              </property>
             </spacer>
            </item>
            <item>
             <widget class="QTableView" name="tableViewAssociatedLagrangianWriter"/>
            </item>
            <item>
             <spacer>
              <property name="orientation">
               <enum>Qt::Horizontal</enum>
              </property>
              <property name="sizeHint" stdset="0">
               <size>
                <width>40</width>
                <height>20</height>
               </size>
              </property>
             </spacer>
            </item>
           </layout>
          </item>
          <item row="1" column="0">
           <layout class="QHBoxLayout">
            <property name="spacing">
             <number>6</number>
            </property>
            <property name="margin">
             <number>0</number>
            </property>
            <item>
             <spacer>
              <property name="orientation">
               <enum>Qt::Horizontal</enum>
              </property>
              <property name="sizeHint" stdset="0">
               <size>
                <width>40</width>
                <height>20</height>
               </size>
              </property>
             </spacer>
            </item>
            <item>
             <widget class="QPushButton" name="pushButtonAddAssociatedLagrangianWriter">
              <property name="text">
               <string/>
              </property>
              <property name="icon">
               <iconset resource="resources_pages.qrc">
                <normaloff>:/new/prefix1/icons/22x22/add.png</normaloff>:/new/prefix1/icons/22x22/add.png</iconset>
              </property>
             </widget>
            </item>
            <item>
             <widget class="QPushButton" name="pushButtonDeleteAssociatedLagrangianWriter">
              <property name="text">
               <string/>
              </property>
              <property name="icon">
               <iconset resource="resources_pages.qrc">
                <normaloff>:/new/prefix1/icons/22x22/remove.png</normaloff>:/new/prefix1/icons/22x22/remove.png</iconset>
              </property>
             </widget>
            </item>
            <item>
             <spacer>
              <property name="orientation">
               <enum>Qt::Horizontal</enum>
              </property>
              <property name="sizeHint" stdset="0">
               <size>
                <width>40</width>
                <height>20</height>
               </size>
              </property>
             </spacer>
            </item>
           </layout>
          </item>
         </layout>
        </widget>
       </item>
      </layout>
     </widget>
     <widget class="QWidget" name="tabMONITORING">
      <attribute name="title">
       <string>Monitoring Points</string>
      </attribute>
      <layout class="QGridLayout" name="gridLayout_3">
       <item row="0" column="0">
        <widget class="QGroupBox" name="groupBoxMonitoring">
         <property name="title">
          <string>Monitoring points output</string>
         </property>
         <layout class="QGridLayout">
          <property name="margin">
           <number>9</number>
          </property>
          <property name="spacing">
           <number>6</number>
          </property>
          <item row="0" column="0">
           <layout class="QHBoxLayout">
            <property name="spacing">
             <number>6</number>
            </property>
            <property name="margin">
             <number>0</number>
            </property>
            <item>
             <spacer>
              <property name="orientation">
               <enum>Qt::Horizontal</enum>
              </property>
              <property name="sizeHint" stdset="0">
               <size>
                <width>37</width>
                <height>22</height>
               </size>
              </property>
             </spacer>
            </item>
            <item>
             <widget class="QComboBox" name="comboBoxHisto">
              <property name="minimumSize">
               <size>
                <width>200</width>
                <height>0</height>
               </size>
              </property>
             </widget>
            </item>
            <item>
             <widget class="QLineEdit" name="lineEditHisto">
              <property name="minimumSize">
               <size>
                <width>30</width>
                <height>0</height>
               </size>
              </property>
              <property name="maximumSize">
               <size>
                <width>40</width>
                <height>16777215</height>
               </size>
              </property>
              <property name="toolTip">
               <string>Code_Saturne key word: NTHIST</string>
              </property>
             </widget>
            </item>
            <item>
             <widget class="QLineEdit" name="lineEditFRHisto">
              <property name="minimumSize">
               <size>
                <width>40</width>
                <height>0</height>
               </size>
              </property>
              <property name="maximumSize">
               <size>
                <width>40</width>
                <height>16777215</height>
               </size>
              </property>
              <property name="toolTip">
               <string>Code_Saturne key word: NTHIST</string>
              </property>
             </widget>
            </item>
            <item>
             <widget class="QLabel" name="label">
              <property name="text">
               <string>Format</string>
              </property>
             </widget>
            </item>
            <item>
             <widget class="QComboBox" name="comboBoxProbeFmt">
              <property name="minimumSize">
               <size>
                <width>20</width>
                <height>0</height>
               </size>
              </property>
              <property name="sizeAdjustPolicy">
               <enum>QComboBox::AdjustToContents</enum>
              </property>
             </widget>
            </item>
            <item>
             <spacer>
              <property name="orientation">
               <enum>Qt::Horizontal</enum>
              </property>
              <property name="sizeHint" stdset="0">
               <size>
                <width>18</width>
                <height>22</height>
               </size>
              </property>
             </spacer>
            </item>
           </layout>
          </item>
         </layout>
        </widget>
       </item>
       <item row="1" column="0">
        <widget class="QGroupBox" name="groupBoxMonitoringCoordinates">
         <property name="maximumSize">
          <size>
           <width>16777215</width>
           <height>1000</height>
          </size>
         </property>
         <property name="title">
          <string>Monitoring points coordinates</string>
         </property>
         <layout class="QGridLayout" name="gridLayout_2">
          <item row="0" column="0">
           <widget class="QTableView" name="tableViewPoints">
            <property name="minimumSize">
             <size>
              <width>0</width>
              <height>150</height>
             </size>
            </property>
            <property name="maximumSize">
             <size>
              <width>16777215</width>
              <height>300</height>
             </size>
            </property>
           </widget>
          </item>
          <item row="1" column="0">
           <layout class="QHBoxLayout" name="horizontalLayout_3">
            <item>
             <spacer>
              <property name="orientation">
               <enum>Qt::Horizontal</enum>
              </property>
              <property name="sizeHint" stdset="0">
               <size>
                <width>89</width>
                <height>20</height>
               </size>
              </property>
             </spacer>
            </item>
            <item>
             <widget class="QToolButton" name="toolButtonAdd">
              <property name="minimumSize">
               <size>
                <width>80</width>
                <height>0</height>
               </size>
              </property>
              <property name="maximumSize">
               <size>
                <width>80</width>
                <height>16777215</height>
               </size>
              </property>
              <property name="text">
               <string/>
              </property>
              <property name="icon">
               <iconset resource="resources_pages.qrc">
                <normaloff>:/new/prefix1/icons/22x22/add.png</normaloff>:/new/prefix1/icons/22x22/add.png</iconset>
              </property>
             </widget>
            </item>
            <item>
             <widget class="QToolButton" name="toolButtonDelete">
              <property name="minimumSize">
               <size>
                <width>80</width>
                <height>0</height>
               </size>
              </property>
              <property name="maximumSize">
               <size>
                <width>80</width>
                <height>16777215</height>
               </size>
              </property>
              <property name="statusTip">
               <string>Delet several lines if you want</string>
              </property>
              <property name="text">
               <string/>
              </property>
              <property name="icon">
               <iconset resource="resources_pages.qrc">
                <normaloff>:/new/prefix1/icons/22x22/remove.png</normaloff>:/new/prefix1/icons/22x22/remove.png</iconset>
              </property>
             </widget>
            </item>
            <item>
             <widget class="QToolButton" name="toolButtonDuplicate">
              <property name="minimumSize">
               <size>
                <width>80</width>
                <height>0</height>
               </size>
              </property>
              <property name="maximumSize">
               <size>
                <width>80</width>
                <height>16777215</height>
               </size>
              </property>
              <property name="statusTip">
               <string>Delet several lines if you want</string>
              </property>
              <property name="text">
               <string>Duplicate</string>
              </property>
             </widget>
            </item>
            <item>
             <widget class="QToolButton" name="toolButtonImportCSV">
              <property name="minimumSize">
               <size>
                <width>80</width>
                <height>0</height>
               </size>
              </property>
              <property name="maximumSize">
               <size>
                <width>120</width>
                <height>16777215</height>
               </size>
              </property>
              <property name="statusTip">
               <string>Delet several lines if you want</string>
              </property>
              <property name="text">
               <string>import from CSV</string>
              </property>
             </widget>
            </item>
            <item>
             <spacer>
              <property name="orientation">
               <enum>Qt::Horizontal</enum>
              </property>
              <property name="sizeHint" stdset="0">
               <size>
                <width>88</width>
                <height>20</height>
               </size>
              </property>
             </spacer>
            </item>
           </layout>
          </item>
         </layout>
        </widget>
       </item>
       <item row="2" column="0">
        <widget class="QGroupBox" name="groupBoxProbesDisplay">
         <property name="title">
          <string>Display monitoring points on SALOME VTK viewver</string>
         </property>
         <property name="checkable">
          <bool>true</bool>
         </property>
         <layout class="QGridLayout" name="gridLayout">
          <item row="0" column="0">
           <layout class="QHBoxLayout" name="horizontalLayout_2">
            <item>
             <spacer name="horizontalSpacer">
              <property name="orientation">
               <enum>Qt::Horizontal</enum>
              </property>
              <property name="sizeHint" stdset="0">
               <size>
                <width>17</width>
                <height>20</height>
               </size>
              </property>
             </spacer>
            </item>
            <item>
             <layout class="QHBoxLayout" name="horizontalLayout">
              <item>
               <widget class="QLabel" name="labelProbesRadius">
                <property name="text">
                 <string>Probe's radius (m)</string>
                </property>
               </widget>
              </item>
              <item>
               <widget class="QLineEdit" name="lineEditProbesRadius"/>
              </item>
             </layout>
            </item>
            <item>
             <spacer name="horizontalSpacer_2">
              <property name="orientation">
               <enum>Qt::Horizontal</enum>
              </property>
              <property name="sizeHint" stdset="0">
               <size>
                <width>13</width>
                <height>20</height>
               </size>
              </property>
             </spacer>
            </item>
           </layout>
          </item>
         </layout>
        </widget>
       </item>
       <item row="3" column="0">
        <spacer name="verticalSpacer_2">
         <property name="orientation">
          <enum>Qt::Vertical</enum>
         </property>
         <property name="sizeHint" stdset="0">
          <size>
           <width>20</width>
           <height>233</height>
          </size>
         </property>
        </spacer>
       </item>
      </layout>
     </widget>
    </widget>
   </item>
  </layout>
 </widget>
 <resources>
  <include location="resources_pages.qrc"/>
 </resources>
 <connections/>
</ui>
