<?xml version="1.0" encoding="UTF-8"?>
<ui version="4.0">
 <class>ReferenceValuesForm</class>
 <widget class="QWidget" name="ReferenceValuesForm">
  <property name="geometry">
   <rect>
    <x>0</x>
    <y>0</y>
    <width>293</width>
    <height>432</height>
   </rect>
  </property>
  <property name="windowTitle">
   <string>Form</string>
  </property>
  <property name="toolTip">
   <string>Code_Saturne key word: P0</string>
  </property>
  <layout class="QGridLayout" name="gridLayout_2">
   <item row="0" column="0">
    <widget class="QGroupBox" name="groupBoxPressure">
     <property name="title">
      <string>Reference pressure</string>
     </property>
     <layout class="QGridLayout">
      <item row="0" column="0">
       <layout class="QHBoxLayout">
        <item>
         <spacer>
          <property name="orientation">
           <enum>Qt::Horizontal</enum>
          </property>
          <property name="sizeHint" stdset="0">
           <size>
            <width>20</width>
            <height>20</height>
           </size>
          </property>
         </spacer>
        </item>
        <item>
         <widget class="QLabel" name="labelP0">
          <property name="toolTip">
           <string>Code_Saturne key word: P0</string>
          </property>
          <property name="text">
           <string>Reference value for total pressure</string>
          </property>
         </widget>
        </item>
        <item>
         <widget class="QLineEdit" name="lineEditP0">
          <property name="toolTip">
           <string>Code_Saturne key word: P0</string>
          </property>
         </widget>
        </item>
        <item>
         <widget class="QLabel" name="labelUnitP0">
          <property name="text">
           <string>Pa</string>
          </property>
         </widget>
        </item>
        <item>
         <spacer>
          <property name="orientation">
           <enum>Qt::Horizontal</enum>
          </property>
          <property name="sizeHint" stdset="0">
           <size>
            <width>16</width>
            <height>16</height>
           </size>
          </property>
         </spacer>
        </item>
       </layout>
      </item>
     </layout>
    </widget>
   </item>
   <item row="1" column="0">
    <widget class="QGroupBox" name="groupBoxVelocity">
     <property name="title">
      <string>Reference velocity</string>
     </property>
     <layout class="QGridLayout" name="_2">
      <property name="margin">
       <number>9</number>
      </property>
      <property name="spacing">
       <number>6</number>
      </property>
      <item row="0" column="0">
       <layout class="QHBoxLayout" name="_3">
        <property name="spacing">
         <number>6</number>
        </property>
        <property name="margin">
         <number>0</number>
        </property>
        <item>
         <spacer>
          <property name="orientation">
           <enum>Qt::Horizontal</enum>
          </property>
          <property name="sizeHint" stdset="0">
           <size>
            <width>20</width>
            <height>20</height>
           </size>
          </property>
         </spacer>
        </item>
        <item>
         <widget class="QLabel" name="labelV0">
          <property name="toolTip">
           <string>Code_Saturne key word: P0</string>
          </property>
          <property name="text">
           <string>Reference value for velocity</string>
          </property>
         </widget>
        </item>
        <item>
         <widget class="QLineEdit" name="lineEditV0">
          <property name="toolTip">
           <string>Code_Saturne key word: P0</string>
          </property>
         </widget>
        </item>
        <item>
         <widget class="QLabel" name="labelUnitV0">
          <property name="text">
           <string>m/s</string>
          </property>
         </widget>
        </item>
        <item>
         <spacer>
          <property name="orientation">
           <enum>Qt::Horizontal</enum>
          </property>
          <property name="sizeHint" stdset="0">
           <size>
            <width>16</width>
            <height>16</height>
           </size>
          </property>
         </spacer>
        </item>
       </layout>
      </item>
     </layout>
    </widget>
   </item>
   <item row="2" column="0">
    <widget class="QGroupBox" name="groupBoxLength">
     <property name="title">
      <string>Reference length</string>
     </property>
     <layout class="QGridLayout" name="gridLayout">
      <item row="0" column="0">
       <layout class="QHBoxLayout" name="_5">
        <property name="spacing">
         <number>6</number>
        </property>
        <property name="margin">
         <number>0</number>
        </property>
        <item>
         <spacer>
          <property name="orientation">
           <enum>Qt::Horizontal</enum>
          </property>
          <property name="sizeHint" stdset="0">
           <size>
            <width>16</width>
            <height>29</height>
           </size>
          </property>
         </spacer>
        </item>
        <item>
         <widget class="QLabel" name="labelL0">
          <property name="toolTip">
           <string>Code_Saturne key word: P0</string>
          </property>
          <property name="text">
           <string>Reference length</string>
          </property>
         </widget>
        </item>
        <item>
         <widget class="QComboBox" name="comboBoxLength"/>
        </item>
        <item>
         <widget class="QLineEdit" name="lineEditL0">
          <property name="toolTip">
           <string>Code_Saturne key word: P0</string>
          </property>
         </widget>
        </item>
        <item>
         <widget class="QLabel" name="labelUnitL0">
          <property name="text">
           <string>m</string>
          </property>
         </widget>
        </item>
        <item>
         <spacer>
          <property name="orientation">
           <enum>Qt::Horizontal</enum>
          </property>
          <property name="sizeHint" stdset="0">
           <size>
            <width>20</width>
            <height>29</height>
           </size>
          </property>
         </spacer>
        </item>
       </layout>
      </item>
      <item row="1" column="0">
       <layout class="QHBoxLayout" name="_4">
        <item>
         <spacer>
          <property name="orientation">
           <enum>Qt::Horizontal</enum>
          </property>
          <property name="sizeHint" stdset="0">
           <size>
            <width>20</width>
            <height>20</height>
           </size>
          </property>
         </spacer>
        </item>
        <item>
         <widget class="QLabel" name="labelInfoT0_2">
          <property name="text">
           <string>(used for initialization of turbulence)</string>
          </property>
         </widget>
        </item>
        <item>
         <spacer>
          <property name="orientation">
           <enum>Qt::Horizontal</enum>
          </property>
          <property name="sizeHint" stdset="0">
           <size>
            <width>16</width>
            <height>16</height>
           </size>
          </property>
         </spacer>
        </item>
       </layout>
      </item>
     </layout>
    </widget>
   </item>
   <item row="3" column="0">
    <widget class="QGroupBox" name="groupBoxTemperature">
     <property name="title">
      <string>Reference temperature</string>
     </property>
     <layout class="QGridLayout">
      <item row="0" column="0">
       <layout class="QHBoxLayout">
        <item>
         <spacer>
          <property name="orientation">
           <enum>Qt::Horizontal</enum>
          </property>
          <property name="sizeHint" stdset="0">
           <size>
            <width>20</width>
            <height>20</height>
           </size>
          </property>
         </spacer>
        </item>
        <item>
         <widget class="QLabel" name="labelT0">
          <property name="toolTip">
           <string>Code_Saturne key word: T0</string>
          </property>
          <property name="text">
           <string>Reference temperature</string>
          </property>
         </widget>
        </item>
        <item>
         <widget class="QLineEdit" name="lineEditT0">
          <property name="toolTip">
           <string>Code_Saturne key word: T0</string>
          </property>
         </widget>
        </item>
        <item>
         <widget class="QLabel" name="labelUnitT0">
          <property name="text">
           <string>K</string>
          </property>
         </widget>
        </item>
        <item>
         <spacer>
          <property name="orientation">
           <enum>Qt::Horizontal</enum>
          </property>
          <property name="sizeHint" stdset="0">
           <size>
            <width>16</width>
            <height>16</height>
           </size>
          </property>
         </spacer>
        </item>
       </layout>
      </item>
      <item row="1" column="0">
       <layout class="QHBoxLayout">
        <item>
         <spacer>
          <property name="orientation">
           <enum>Qt::Horizontal</enum>
          </property>
          <property name="sizeHint" stdset="0">
           <size>
            <width>20</width>
            <height>20</height>
           </size>
          </property>
         </spacer>
        </item>
        <item>
         <widget class="QLabel" name="labelInfoT0">
          <property name="text">
           <string>(used for initialization of enthalpy and density)</string>
          </property>
         </widget>
        </item>
        <item>
         <spacer>
          <property name="orientation">
           <enum>Qt::Horizontal</enum>
          </property>
          <property name="sizeHint" stdset="0">
           <size>
            <width>16</width>
            <height>16</height>
           </size>
          </property>
         </spacer>
        </item>
       </layout>
      </item>
     </layout>
    </widget>
   </item>
   <item row="4" column="0">
    <widget class="QGroupBox" name="groupBoxMassMolar">
     <property name="title">
      <string>Mass molar molecular reference</string>
     </property>
     <layout class="QGridLayout">
      <item row="0" column="0">
       <layout class="QHBoxLayout">
        <item>
         <spacer>
          <property name="orientation">
           <enum>Qt::Horizontal</enum>
          </property>
          <property name="sizeHint" stdset="0">
           <size>
            <width>20</width>
            <height>20</height>
           </size>
          </property>
         </spacer>
        </item>
        <item>
         <widget class="QLabel" name="labelMassMolar">
          <property name="toolTip">
           <string>Code_Saturne key word: WMOLME</string>
          </property>
          <property name="text">
           <string>Mass molar reference</string>
          </property>
         </widget>
        </item>
        <item>
         <widget class="QLineEdit" name="lineEditMassMolar">
          <property name="toolTip">
           <string>Code_Saturne key word: WMOLME</string>
          </property>
         </widget>
        </item>
        <item>
         <widget class="QLabel" name="labelUnitMassMolar">
          <property name="text">
           <string>kg/mol</string>
          </property>
         </widget>
        </item>
        <item>
         <spacer>
          <property name="orientation">
           <enum>Qt::Horizontal</enum>
          </property>
          <property name="sizeHint" stdset="0">
           <size>
            <width>16</width>
            <height>16</height>
           </size>
          </property>
         </spacer>
        </item>
       </layout>
      </item>
      <item row="1" column="0">
       <layout class="QHBoxLayout">
        <item>
         <spacer>
          <property name="orientation">
           <enum>Qt::Horizontal</enum>
          </property>
          <property name="sizeHint" stdset="0">
           <size>
            <width>20</width>
            <height>20</height>
           </size>
          </property>
         </spacer>
        </item>
        <item>
         <widget class="QLabel" name="labelInfoMassMolar">
          <property name="text">
           <string>(used for initialization of user scalars)</string>
          </property>
         </widget>
        </item>
        <item>
         <spacer>
          <property name="orientation">
           <enum>Qt::Horizontal</enum>
          </property>
          <property name="sizeHint" stdset="0">
           <size>
            <width>16</width>
            <height>16</height>
           </size>
          </property>
         </spacer>
        </item>
       </layout>
      </item>
     </layout>
    </widget>
   </item>
   <item row="5" column="0">
    <spacer>
     <property name="orientation">
      <enum>Qt::Vertical</enum>
     </property>
     <property name="sizeHint" stdset="0">
      <size>
       <width>16</width>
       <height>16</height>
      </size>
     </property>
    </spacer>
   </item>
  </layout>
 </widget>
 <resources/>
 <connections/>
</ui>
