<?xml version="1.0" encoding="UTF-8"?>
<ui version="4.0">
 <class>ReferenceValuesForm</class>
 <widget class="QWidget" name="ReferenceValuesForm">
  <property name="geometry">
   <rect>
    <x>0</x>
    <y>0</y>
    <width>394</width>
    <height>452</height>
   </rect>
  </property>
  <property name="windowTitle">
   <string>Form</string>
  </property>
  <layout class="QGridLayout" name="gridLayout_4">
   <item row="2" column="0">
    <widget class="QGroupBox" name="groupBoxTempd3p">
     <property name="toolTip">
      <string>&lt;html&gt;&lt;head/&gt;&lt;body&gt;&lt;p&gt;&lt;span style=&quot; font-size:9pt;&quot;&gt;Define the reference temperatures of the oxydant and the fuel in Kelvin in case of Gas combustion.&lt;/span&gt;&lt;/p&gt;&lt;p&gt;&lt;span style=&quot; font-size:9pt;&quot;&gt;(Code_Saturne key words: &lt;/span&gt;&lt;span style=&quot; font-size:9pt; font-weight:600;&quot;&gt;TINFUE&lt;/span&gt;&lt;span style=&quot; font-size:9pt;&quot;&gt;, &lt;/span&gt;&lt;span style=&quot; font-size:9pt; font-weight:600;&quot;&gt;TINOXY&lt;/span&gt;&lt;span style=&quot; font-size:9pt;&quot;&gt;)&lt;/span&gt;&lt;/p&gt;&lt;/body&gt;&lt;/html&gt;</string>
     </property>
     <property name="title">
      <string>Gas Combustion Reference temperature</string>
     </property>
     <layout class="QGridLayout" name="gridLayout_3">
      <item row="0" column="0">
       <spacer>
        <property name="orientation">
         <enum>Qt::Horizontal</enum>
        </property>
        <property name="sizeHint" stdset="0">
         <size>
          <width>71</width>
          <height>26</height>
         </size>
        </property>
       </spacer>
      </item>
      <item row="0" column="1">
       <layout class="QGridLayout" name="gridLayout_2">
        <item row="0" column="0" colspan="2">
         <widget class="QLabel" name="labelOxydant">
          <property name="toolTip">
           <string>&lt;html&gt;&lt;head/&gt;&lt;body&gt;&lt;p&gt;&lt;span style=&quot; font-size:9pt;&quot;&gt;Define the reference temperatures of the oxydant and the fuel in Kelvin in case of Gas combustion.&lt;/span&gt;&lt;/p&gt;&lt;p&gt;&lt;span style=&quot; font-size:9pt;&quot;&gt;(Code_Saturne key words: &lt;/span&gt;&lt;span style=&quot; font-size:9pt; font-weight:600;&quot;&gt;TINOXY&lt;/span&gt;&lt;span style=&quot; font-size:9pt;&quot;&gt;)&lt;/span&gt;&lt;/p&gt;&lt;/body&gt;&lt;/html&gt;</string>
          </property>
          <property name="text">
           <string>Oxydant</string>
          </property>
         </widget>
        </item>
        <item row="0" column="2">
         <widget class="QLineEdit" name="lineEditOxydant">
          <property name="toolTip">
           <string>&lt;html&gt;&lt;head/&gt;&lt;body&gt;&lt;p&gt;&lt;span style=&quot; font-size:9pt;&quot;&gt;Define the reference temperatures of the oxydant and the fuel in Kelvin in case of Gas combustion.&lt;/span&gt;&lt;/p&gt;&lt;p&gt;&lt;span style=&quot; font-size:9pt;&quot;&gt;(Code_Saturne key words: &lt;/span&gt;&lt;span style=&quot; font-size:9pt; font-weight:600;&quot;&gt;TINOXY&lt;/span&gt;&lt;span style=&quot; font-size:9pt;&quot;&gt;)&lt;/span&gt;&lt;/p&gt;&lt;/body&gt;&lt;/html&gt;</string>
          </property>
         </widget>
        </item>
        <item row="0" column="3">
         <widget class="QLabel" name="labelUnitT0_2">
          <property name="toolTip">
           <string>&lt;html&gt;&lt;head/&gt;&lt;body&gt;&lt;p&gt;&lt;span style=&quot; font-size:9pt;&quot;&gt;Define the reference temperatures of the oxydant and the fuel in Kelvin in case of Gas combustion.&lt;/span&gt;&lt;/p&gt;&lt;p&gt;&lt;span style=&quot; font-size:9pt;&quot;&gt;(Code_Saturne key words: &lt;/span&gt;&lt;span style=&quot; font-size:9pt; font-weight:600;&quot;&gt;TINOXY&lt;/span&gt;&lt;span style=&quot; font-size:9pt;&quot;&gt;)&lt;/span&gt;&lt;/p&gt;&lt;/body&gt;&lt;/html&gt;</string>
          </property>
          <property name="text">
           <string>K</string>
          </property>
         </widget>
        </item>
        <item row="1" column="0">
         <widget class="QLabel" name="labelTFuel">
          <property name="toolTip">
           <string>&lt;html&gt;&lt;head/&gt;&lt;body&gt;&lt;p&gt;&lt;span style=&quot; font-size:9pt;&quot;&gt;Define the reference temperature for the fuel in Kelvin in case of Gas combustion.&lt;/span&gt;&lt;/p&gt;&lt;p&gt;&lt;span style=&quot; font-size:9pt;&quot;&gt;(Code_Saturne key word: &lt;/span&gt;&lt;span style=&quot; font-size:9pt; font-weight:600;&quot;&gt;TINFUE&lt;/span&gt;&lt;span style=&quot; font-size:9pt;&quot;&gt;)&lt;/span&gt;&lt;/p&gt;&lt;/body&gt;&lt;/html&gt;</string>
          </property>
          <property name="text">
           <string>Fuel</string>
          </property>
         </widget>
        </item>
        <item row="1" column="1">
         <spacer>
          <property name="orientation">
           <enum>Qt::Horizontal</enum>
          </property>
          <property name="sizeHint" stdset="0">
           <size>
            <width>16</width>
            <height>20</height>
           </size>
          </property>
         </spacer>
        </item>
        <item row="1" column="2">
         <widget class="QLineEdit" name="lineEditFuel">
          <property name="toolTip">
           <string>&lt;html&gt;&lt;head/&gt;&lt;body&gt;&lt;p&gt;&lt;span style=&quot; font-size:9pt;&quot;&gt;Define the reference temperature for the fuel in Kelvin in case of Gas combustion.&lt;/span&gt;&lt;/p&gt;&lt;p&gt;&lt;span style=&quot; font-size:9pt;&quot;&gt;(Code_Saturne key word: &lt;/span&gt;&lt;span style=&quot; font-size:9pt; font-weight:600;&quot;&gt;TINFUE&lt;/span&gt;&lt;span style=&quot; font-size:9pt;&quot;&gt;)&lt;/span&gt;&lt;/p&gt;&lt;/body&gt;&lt;/html&gt;</string>
          </property>
         </widget>
        </item>
        <item row="1" column="3">
         <widget class="QLabel" name="labelUnitT0_3">
          <property name="toolTip">
           <string>&lt;html&gt;&lt;head/&gt;&lt;body&gt;&lt;p&gt;&lt;span style=&quot; font-size:9pt;&quot;&gt;Define the reference temperature for the fuel in Kelvin in case of Gas combustion.&lt;/span&gt;&lt;/p&gt;&lt;p&gt;&lt;span style=&quot; font-size:9pt;&quot;&gt;(Code_Saturne key word: &lt;/span&gt;&lt;span style=&quot; font-size:9pt; font-weight:600;&quot;&gt;TINFUE&lt;/span&gt;&lt;span style=&quot; font-size:9pt;&quot;&gt;)&lt;/span&gt;&lt;/p&gt;&lt;/body&gt;&lt;/html&gt;</string>
          </property>
          <property name="text">
           <string>K</string>
          </property>
         </widget>
        </item>
       </layout>
      </item>
      <item row="0" column="2">
       <spacer>
        <property name="orientation">
         <enum>Qt::Horizontal</enum>
        </property>
        <property name="sizeHint" stdset="0">
         <size>
          <width>71</width>
          <height>26</height>
         </size>
        </property>
       </spacer>
      </item>
     </layout>
    </widget>
   </item>
   <item row="4" column="0">
    <spacer>
     <property name="orientation">
      <enum>Qt::Vertical</enum>
     </property>
     <property name="sizeHint" stdset="0">
      <size>
       <width>16</width>
       <height>16</height>
      </size>
     </property>
    </spacer>
   </item>
   <item row="3" column="0">
    <widget class="QGroupBox" name="groupBoxMassMolar">
     <property name="toolTip">
      <string>&lt;html&gt;&lt;head/&gt;&lt;body&gt;&lt;p&gt;&lt;span style=&quot; font-size:9pt;&quot;&gt;Define the reference molar mass in kg/mol for compressible flows.&lt;/span&gt;&lt;/p&gt;&lt;p&gt;&lt;span style=&quot; font-size:9pt;&quot;&gt;(Code_Saturne key word: &lt;/span&gt;&lt;span style=&quot; font-size:9pt; font-weight:600;&quot;&gt;XMASMR&lt;/span&gt;&lt;span style=&quot; font-size:9pt;&quot;&gt;)&lt;/span&gt;&lt;/p&gt;&lt;/body&gt;&lt;/html&gt;</string>
     </property>
     <property name="title">
      <string>Molar mass reference</string>
     </property>
     <layout class="QGridLayout">
      <item row="0" column="0">
       <layout class="QHBoxLayout">
        <item>
         <spacer>
          <property name="orientation">
           <enum>Qt::Horizontal</enum>
          </property>
          <property name="sizeHint" stdset="0">
           <size>
            <width>20</width>
            <height>20</height>
           </size>
          </property>
         </spacer>
        </item>
        <item>
         <widget class="QLabel" name="labelMassMolar">
          <property name="toolTip">
           <string>&lt;html&gt;&lt;head/&gt;&lt;body&gt;&lt;p&gt;&lt;span style=&quot; font-size:9pt;&quot;&gt;Define the reference molar mass in kg/mol for compressible flows.&lt;/span&gt;&lt;/p&gt;&lt;p&gt;&lt;span style=&quot; font-size:9pt;&quot;&gt;(Code_Saturne key word: &lt;/span&gt;&lt;span style=&quot; font-size:9pt; font-weight:600;&quot;&gt;XMASMR&lt;/span&gt;&lt;span style=&quot; font-size:9pt;&quot;&gt;)&lt;/span&gt;&lt;/p&gt;&lt;/body&gt;&lt;/html&gt;</string>
          </property>
          <property name="text">
           <string>Molar mass reference</string>
          </property>
         </widget>
        </item>
        <item>
         <widget class="QLineEdit" name="lineEditMassMolar">
          <property name="toolTip">
           <string>&lt;html&gt;&lt;head/&gt;&lt;body&gt;&lt;p&gt;&lt;span style=&quot; font-size:9pt;&quot;&gt;Define the reference molar mass in kg/mol for compressible flows.&lt;/span&gt;&lt;/p&gt;&lt;p&gt;&lt;span style=&quot; font-size:9pt;&quot;&gt;(Code_Saturne key word: &lt;/span&gt;&lt;span style=&quot; font-size:9pt; font-weight:600;&quot;&gt;XMASMR&lt;/span&gt;&lt;span style=&quot; font-size:9pt;&quot;&gt;)&lt;/span&gt;&lt;/p&gt;&lt;/body&gt;&lt;/html&gt;</string>
          </property>
         </widget>
        </item>
        <item>
         <widget class="QLabel" name="labelUnitMassMolar">
          <property name="toolTip">
           <string>&lt;html&gt;&lt;head/&gt;&lt;body&gt;&lt;p&gt;&lt;span style=&quot; font-size:9pt;&quot;&gt;Define the reference molar mass in kg/mol for compressible flows.&lt;/span&gt;&lt;/p&gt;&lt;p&gt;&lt;span style=&quot; font-size:9pt;&quot;&gt;(Code_Saturne key word: &lt;/span&gt;&lt;span style=&quot; font-size:9pt; font-weight:600;&quot;&gt;XMASMR&lt;/span&gt;&lt;span style=&quot; font-size:9pt;&quot;&gt;)&lt;/span&gt;&lt;/p&gt;&lt;/body&gt;&lt;/html&gt;</string>
          </property>
          <property name="text">
           <string>kg/mol</string>
          </property>
         </widget>
        </item>
        <item>
         <spacer>
          <property name="orientation">
           <enum>Qt::Horizontal</enum>
          </property>
          <property name="sizeHint" stdset="0">
           <size>
            <width>16</width>
            <height>16</height>
           </size>
          </property>
         </spacer>
        </item>
       </layout>
      </item>
      <item row="1" column="0">
       <layout class="QHBoxLayout">
        <item>
         <spacer>
          <property name="orientation">
           <enum>Qt::Horizontal</enum>
          </property>
          <property name="sizeHint" stdset="0">
           <size>
            <width>20</width>
            <height>20</height>
           </size>
          </property>
         </spacer>
        </item>
        <item>
         <widget class="QLabel" name="labelInfoMassMolar">
          <property name="toolTip">
           <string>&lt;html&gt;&lt;head/&gt;&lt;body&gt;&lt;p&gt;&lt;span style=&quot; font-size:9pt;&quot;&gt;Define the reference molar mass in kg/mol for compressible flows.&lt;/span&gt;&lt;/p&gt;&lt;p&gt;&lt;span style=&quot; font-size:9pt;&quot;&gt;(Code_Saturne key word: &lt;/span&gt;&lt;span style=&quot; font-size:9pt; font-weight:600;&quot;&gt;XMASMR&lt;/span&gt;&lt;span style=&quot; font-size:9pt;&quot;&gt;)&lt;/span&gt;&lt;/p&gt;&lt;/body&gt;&lt;/html&gt;</string>
          </property>
          <property name="text">
           <string>(used for initialization of user scalars)</string>
          </property>
         </widget>
        </item>
        <item>
         <spacer>
          <property name="orientation">
           <enum>Qt::Horizontal</enum>
          </property>
          <property name="sizeHint" stdset="0">
           <size>
            <width>16</width>
            <height>16</height>
           </size>
          </property>
         </spacer>
        </item>
       </layout>
      </item>
     </layout>
    </widget>
   </item>
   <item row="1" column="0">
    <widget class="QGroupBox" name="groupBoxTemperature">
     <property name="toolTip">
      <string>&lt;html&gt;&lt;head/&gt;&lt;body&gt;&lt;p&gt;&lt;span style=&quot; font-size:9pt;&quot;&gt;Define the reference temperature in Kelvin. For the combustion, electric model and compressible modules, defining this temprature is compulsory (initialization) and must be greather than 0.&lt;/span&gt;&lt;/p&gt;&lt;p&gt;&lt;span style=&quot; font-size:9pt;&quot;&gt;(Code_Saturne key word: &lt;/span&gt;&lt;span style=&quot; font-size:9pt; font-weight:600;&quot;&gt;T0&lt;/span&gt;&lt;span style=&quot; font-size:9pt;&quot;&gt;)&lt;/span&gt;&lt;/p&gt;&lt;/body&gt;&lt;/html&gt;</string>
     </property>
     <property name="title">
      <string>Reference temperature</string>
     </property>
     <layout class="QGridLayout">
      <item row="0" column="0">
       <layout class="QHBoxLayout">
        <item>
         <spacer>
          <property name="orientation">
           <enum>Qt::Horizontal</enum>
          </property>
          <property name="sizeHint" stdset="0">
           <size>
            <width>20</width>
            <height>20</height>
           </size>
          </property>
         </spacer>
        </item>
        <item>
         <widget class="QLabel" name="labelT0">
          <property name="toolTip">
           <string>&lt;html&gt;&lt;head/&gt;&lt;body&gt;&lt;p&gt;&lt;span style=&quot; font-size:9pt;&quot;&gt;Define the reference temperature in Kelvin. For the combustion, electric model and compressible modules, defining this temprature is compulsory (initialization) and must be greather than 0.&lt;/span&gt;&lt;/p&gt;&lt;p&gt;&lt;span style=&quot; font-size:9pt;&quot;&gt;(Code_Saturne key word: &lt;/span&gt;&lt;span style=&quot; font-size:9pt; font-weight:600;&quot;&gt;T0&lt;/span&gt;&lt;span style=&quot; font-size:9pt;&quot;&gt;)&lt;/span&gt;&lt;/p&gt;&lt;/body&gt;&lt;/html&gt;</string>
          </property>
          <property name="text">
           <string>Reference temperature</string>
          </property>
         </widget>
        </item>
        <item>
         <widget class="QLineEdit" name="lineEditT0">
          <property name="toolTip">
           <string>&lt;html&gt;&lt;head/&gt;&lt;body&gt;&lt;p&gt;&lt;span style=&quot; font-size:9pt;&quot;&gt;Define the reference temperature in Kelvin. For the combustion, electric model and compressible modules, defining this temprature is compulsory (initialization) and must be greather than 0.&lt;/span&gt;&lt;/p&gt;&lt;p&gt;&lt;span style=&quot; font-size:9pt;&quot;&gt;(Code_Saturne key word: &lt;/span&gt;&lt;span style=&quot; font-size:9pt; font-weight:600;&quot;&gt;T0&lt;/span&gt;&lt;span style=&quot; font-size:9pt;&quot;&gt;)&lt;/span&gt;&lt;/p&gt;&lt;/body&gt;&lt;/html&gt;</string>
          </property>
         </widget>
        </item>
        <item>
         <widget class="QLabel" name="labelUnitT0">
          <property name="toolTip">
           <string>&lt;html&gt;&lt;head/&gt;&lt;body&gt;&lt;p&gt;&lt;span style=&quot; font-size:9pt;&quot;&gt;Define the reference temperature in Kelvin. For the combustion, electric model and compressible modules, defining this temprature is compulsory (initialization) and must be greather than 0.&lt;/span&gt;&lt;/p&gt;&lt;p&gt;&lt;span style=&quot; font-size:9pt;&quot;&gt;(Code_Saturne key word: &lt;/span&gt;&lt;span style=&quot; font-size:9pt; font-weight:600;&quot;&gt;T0&lt;/span&gt;&lt;span style=&quot; font-size:9pt;&quot;&gt;)&lt;/span&gt;&lt;/p&gt;&lt;/body&gt;&lt;/html&gt;</string>
          </property>
          <property name="text">
           <string>K</string>
          </property>
         </widget>
        </item>
        <item>
         <spacer>
          <property name="orientation">
           <enum>Qt::Horizontal</enum>
          </property>
          <property name="sizeHint" stdset="0">
           <size>
            <width>16</width>
            <height>16</height>
           </size>
          </property>
         </spacer>
        </item>
       </layout>
      </item>
      <item row="1" column="0">
       <layout class="QHBoxLayout">
        <item>
         <spacer>
          <property name="orientation">
           <enum>Qt::Horizontal</enum>
          </property>
          <property name="sizeHint" stdset="0">
           <size>
            <width>20</width>
            <height>20</height>
           </size>
          </property>
         </spacer>
        </item>
        <item>
         <widget class="QLabel" name="labelInfoT0">
          <property name="toolTip">
           <string>&lt;html&gt;&lt;head/&gt;&lt;body&gt;&lt;p&gt;&lt;span style=&quot; font-size:9pt;&quot;&gt;Define the reference temperature in Kelvin. For the combustion, electric model and compressible modules, defining this temprature is compulsory (initialization) and must be greather than 0.&lt;/span&gt;&lt;/p&gt;&lt;p&gt;&lt;span style=&quot; font-size:9pt;&quot;&gt;(Code_Saturne key word: &lt;/span&gt;&lt;span style=&quot; font-size:9pt; font-weight:600;&quot;&gt;T0&lt;/span&gt;&lt;span style=&quot; font-size:9pt;&quot;&gt;)&lt;/span&gt;&lt;/p&gt;&lt;/body&gt;&lt;/html&gt;</string>
          </property>
          <property name="text">
           <string>(used for properties initialization)</string>
          </property>
         </widget>
        </item>
        <item>
         <spacer>
          <property name="orientation">
           <enum>Qt::Horizontal</enum>
          </property>
          <property name="sizeHint" stdset="0">
           <size>
            <width>16</width>
            <height>16</height>
           </size>
          </property>
         </spacer>
        </item>
       </layout>
      </item>
     </layout>
    </widget>
   </item>
   <item row="0" column="0">
    <widget class="QGroupBox" name="groupBoxPressure">
     <property name="toolTip">
      <string>&lt;html&gt;&lt;head/&gt;&lt;body&gt;&lt;p&gt;&lt;span style=&quot; font-size:9pt;&quot;&gt;Define the reference pressure in Pascals. &lt;/span&gt;&lt;span style=&quot; font-size:9pt; font-weight:600;&quot;&gt;p0&lt;/span&gt;&lt;span style=&quot; font-size:9pt;&quot;&gt; is the reference pressure for the total pressure. Except with the compressible module, the total pressure P is evaluated from the reduced pressure &lt;/span&gt;&lt;span style=&quot; font-size:9pt; font-weight:600;&quot;&gt;P*&lt;/span&gt;&lt;span style=&quot; font-size:9pt;&quot;&gt; so that &lt;/span&gt;&lt;span style=&quot; font-size:9pt; font-weight:600;&quot;&gt;P&lt;/span&gt;&lt;span style=&quot; font-size:9pt;&quot;&gt; is equal to &lt;/span&gt;&lt;span style=&quot; font-size:9pt; font-weight:600;&quot;&gt;p0&lt;/span&gt;&lt;span style=&quot; font-size:9pt;&quot;&gt; at the reference position &lt;/span&gt;&lt;span style=&quot; font-size:9pt; font-weight:600;&quot;&gt;x0&lt;/span&gt;&lt;span style=&quot; font-size:9pt;&quot;&gt; (given by &lt;/span&gt;&lt;span style=&quot; font-size:9pt; font-weight:600;&quot;&gt;xyzp0&lt;/span&gt;&lt;span style=&quot; font-size:9pt;&quot;&gt;).&lt;/span&gt;&lt;/p&gt;&lt;p&gt;&lt;span style=&quot; font-size:9pt;&quot;&gt;(Code_Saturne key word: &lt;/span&gt;&lt;span style=&quot; font-size:9pt; font-weight:600;&quot;&gt;P0&lt;/span&gt;&lt;span style=&quot; font-size:9pt;&quot;&gt;)&lt;/span&gt;&lt;/p&gt;&lt;/body&gt;&lt;/html&gt;</string>
     </property>
     <property name="title">
      <string>Reference pressure</string>
     </property>
     <layout class="QGridLayout">
      <item row="0" column="0">
       <layout class="QHBoxLayout">
        <item>
         <spacer>
          <property name="orientation">
           <enum>Qt::Horizontal</enum>
          </property>
          <property name="sizeHint" stdset="0">
           <size>
            <width>20</width>
            <height>20</height>
           </size>
          </property>
         </spacer>
        </item>
        <item>
         <widget class="QLabel" name="labelP0">
          <property name="toolTip">
           <string>&lt;html&gt;&lt;head/&gt;&lt;body&gt;&lt;p&gt;&lt;span style=&quot; font-size:9pt;&quot;&gt;Define the reference pressure in Pascals. &lt;/span&gt;&lt;span style=&quot; font-size:9pt; font-weight:600;&quot;&gt;p0&lt;/span&gt;&lt;span style=&quot; font-size:9pt;&quot;&gt; is the reference pressure for the total pressure. Except with the compressible module, the total pressure P is evaluated from the reduced pressure &lt;/span&gt;&lt;span style=&quot; font-size:9pt; font-weight:600;&quot;&gt;P*&lt;/span&gt;&lt;span style=&quot; font-size:9pt;&quot;&gt; so that &lt;/span&gt;&lt;span style=&quot; font-size:9pt; font-weight:600;&quot;&gt;P&lt;/span&gt;&lt;span style=&quot; font-size:9pt;&quot;&gt; is equal to &lt;/span&gt;&lt;span style=&quot; font-size:9pt; font-weight:600;&quot;&gt;p0&lt;/span&gt;&lt;span style=&quot; font-size:9pt;&quot;&gt; at the reference position &lt;/span&gt;&lt;span style=&quot; font-size:9pt; font-weight:600;&quot;&gt;x0&lt;/span&gt;&lt;span style=&quot; font-size:9pt;&quot;&gt; (given by &lt;/span&gt;&lt;span style=&quot; font-size:9pt; font-weight:600;&quot;&gt;xyzp0&lt;/span&gt;&lt;span style=&quot; font-size:9pt;&quot;&gt;).&lt;/span&gt;&lt;/p&gt;&lt;p&gt;&lt;span style=&quot; font-size:9pt;&quot;&gt;(Code_Saturne key word: &lt;/span&gt;&lt;span style=&quot; font-size:9pt; font-weight:600;&quot;&gt;P0&lt;/span&gt;&lt;span style=&quot; font-size:9pt;&quot;&gt;)&lt;/span&gt;&lt;/p&gt;&lt;/body&gt;&lt;/html&gt;</string>
          </property>
          <property name="text">
           <string>Reference value for total pressure</string>
          </property>
         </widget>
        </item>
        <item>
         <widget class="QLineEdit" name="lineEditP0">
          <property name="toolTip">
           <string>&lt;html&gt;&lt;head/&gt;&lt;body&gt;&lt;p&gt;&lt;span style=&quot; font-size:9pt;&quot;&gt;Define the reference pressure in Pascals. &lt;/span&gt;&lt;span style=&quot; font-size:9pt; font-weight:600;&quot;&gt;p0&lt;/span&gt;&lt;span style=&quot; font-size:9pt;&quot;&gt; is the reference pressure for the total pressure. Except with the compressible module, the total pressure P is evaluated from the reduced pressure &lt;/span&gt;&lt;span style=&quot; font-size:9pt; font-weight:600;&quot;&gt;P*&lt;/span&gt;&lt;span style=&quot; font-size:9pt;&quot;&gt; so that &lt;/span&gt;&lt;span style=&quot; font-size:9pt; font-weight:600;&quot;&gt;P&lt;/span&gt;&lt;span style=&quot; font-size:9pt;&quot;&gt; is equal to &lt;/span&gt;&lt;span style=&quot; font-size:9pt; font-weight:600;&quot;&gt;p0&lt;/span&gt;&lt;span style=&quot; font-size:9pt;&quot;&gt; at the reference position &lt;/span&gt;&lt;span style=&quot; font-size:9pt; font-weight:600;&quot;&gt;x0&lt;/span&gt;&lt;span style=&quot; font-size:9pt;&quot;&gt; (given by &lt;/span&gt;&lt;span style=&quot; font-size:9pt; font-weight:600;&quot;&gt;xyzp0&lt;/span&gt;&lt;span style=&quot; font-size:9pt;&quot;&gt;).&lt;/span&gt;&lt;/p&gt;&lt;p&gt;&lt;span style=&quot; font-size:9pt;&quot;&gt;(Code_Saturne key word: &lt;/span&gt;&lt;span style=&quot; font-size:9pt; font-weight:600;&quot;&gt;P0&lt;/span&gt;&lt;span style=&quot; font-size:9pt;&quot;&gt;)&lt;/span&gt;&lt;/p&gt;&lt;/body&gt;&lt;/html&gt;</string>
          </property>
         </widget>
        </item>
        <item>
         <widget class="QLabel" name="labelUnitP0">
          <property name="toolTip">
           <string>&lt;html&gt;&lt;head/&gt;&lt;body&gt;&lt;p&gt;&lt;span style=&quot; font-size:9pt;&quot;&gt;Define the reference pressure in Pascals. &lt;/span&gt;&lt;span style=&quot; font-size:9pt; font-weight:600;&quot;&gt;p0&lt;/span&gt;&lt;span style=&quot; font-size:9pt;&quot;&gt; is the reference pressure for the total pressure. Except with the compressible module, the total pressure P is evaluated from the reduced pressure &lt;/span&gt;&lt;span style=&quot; font-size:9pt; font-weight:600;&quot;&gt;P*&lt;/span&gt;&lt;span style=&quot; font-size:9pt;&quot;&gt; so that &lt;/span&gt;&lt;span style=&quot; font-size:9pt; font-weight:600;&quot;&gt;P&lt;/span&gt;&lt;span style=&quot; font-size:9pt;&quot;&gt; is equal to &lt;/span&gt;&lt;span style=&quot; font-size:9pt; font-weight:600;&quot;&gt;p0&lt;/span&gt;&lt;span style=&quot; font-size:9pt;&quot;&gt; at the reference position &lt;/span&gt;&lt;span style=&quot; font-size:9pt; font-weight:600;&quot;&gt;x0&lt;/span&gt;&lt;span style=&quot; font-size:9pt;&quot;&gt; (given by &lt;/span&gt;&lt;span style=&quot; font-size:9pt; font-weight:600;&quot;&gt;xyzp0&lt;/span&gt;&lt;span style=&quot; font-size:9pt;&quot;&gt;).&lt;/span&gt;&lt;/p&gt;&lt;p&gt;&lt;span style=&quot; font-size:9pt;&quot;&gt;(Code_Saturne key word: &lt;/span&gt;&lt;span style=&quot; font-size:9pt; font-weight:600;&quot;&gt;P0&lt;/span&gt;&lt;span style=&quot; font-size:9pt;&quot;&gt;)&lt;/span&gt;&lt;/p&gt;&lt;/body&gt;&lt;/html&gt;</string>
          </property>
          <property name="text">
           <string>Pa</string>
          </property>
         </widget>
        </item>
        <item>
         <spacer>
          <property name="orientation">
           <enum>Qt::Horizontal</enum>
          </property>
          <property name="sizeHint" stdset="0">
           <size>
            <width>16</width>
            <height>16</height>
           </size>
          </property>
         </spacer>
        </item>
       </layout>
      </item>
     </layout>
    </widget>
   </item>
  </layout>
 </widget>
 <resources/>
 <connections/>
</ui>
