<?xml version="1.0" encoding="UTF-8"?>
<ui version="4.0">
 <class>SteadyManagementForm</class>
 <widget class="QWidget" name="SteadyManagementForm">
  <property name="geometry">
   <rect>
    <x>0</x>
    <y>0</y>
    <width>366</width>
    <height>163</height>
   </rect>
  </property>
  <property name="windowTitle">
   <string>Form</string>
  </property>
  <layout class="QGridLayout" name="gridLayout_3">
   <item row="0" column="0">
    <widget class="QGroupBox" name="groupBox">
     <property name="toolTip">
      <string>&lt;html&gt;&lt;head/&gt;&lt;body&gt;&lt;p&gt;&lt;span style=&quot; font-size:9pt;&quot;&gt;Specify the steady flow algorithm options.&lt;/span&gt;&lt;/p&gt;&lt;/body&gt;&lt;/html&gt;</string>
     </property>
     <property name="title">
      <string>Steady flow algorithm management</string>
     </property>
     <layout class="QGridLayout" name="gridLayout_2">
      <item row="0" column="0">
       <layout class="QHBoxLayout" name="horizontalLayout">
        <item>
         <spacer>
          <property name="orientation">
           <enum>Qt::Horizontal</enum>
          </property>
          <property name="sizeHint" stdset="0">
           <size>
            <width>13</width>
            <height>94</height>
           </size>
          </property>
         </spacer>
        </item>
        <item>
         <layout class="QGridLayout" name="gridLayout">
          <item row="0" column="0">
           <widget class="QLabel" name="labelRELXST">
            <property name="minimumSize">
             <size>
              <width>200</width>
              <height>0</height>
             </size>
            </property>
            <property name="toolTip">
             <string>&lt;html&gt;&lt;head/&gt;&lt;body&gt;&lt;p&gt;&lt;span style=&quot; font-size:9pt;&quot;&gt;Define the relaxation coefficient for the steady algorithm.&lt;/span&gt;&lt;/p&gt;&lt;p&gt;&lt;span style=&quot; font-size:9pt;&quot;&gt;(Code_Saturne key word: &lt;/span&gt;&lt;span style=&quot; font-size:9pt; font-weight:600;&quot;&gt;RELXST&lt;/span&gt;&lt;span style=&quot; font-size:9pt;&quot;&gt;)&lt;/span&gt;&lt;/p&gt;&lt;/body&gt;&lt;/html&gt;</string>
            </property>
            <property name="text">
             <string>Relaxation coefficient</string>
            </property>
           </widget>
          </item>
          <item row="0" column="1">
           <widget class="QLineEdit" name="lineEditRELXST">
            <property name="minimumSize">
             <size>
              <width>60</width>
              <height>0</height>
             </size>
            </property>
            <property name="maximumSize">
             <size>
              <width>100</width>
              <height>16777215</height>
             </size>
            </property>
            <property name="toolTip">
             <string>&lt;html&gt;&lt;head/&gt;&lt;body&gt;&lt;p&gt;&lt;span style=&quot; font-size:9pt;&quot;&gt;Define the relaxation coefficient for the steady algorithm.&lt;/span&gt;&lt;/p&gt;&lt;p&gt;&lt;span style=&quot; font-size:9pt;&quot;&gt;(Code_Saturne key word: &lt;/span&gt;&lt;span style=&quot; font-size:9pt; font-weight:600;&quot;&gt;RELXST&lt;/span&gt;&lt;span style=&quot; font-size:9pt;&quot;&gt;)&lt;/span&gt;&lt;/p&gt;&lt;/body&gt;&lt;/html&gt;</string>
            </property>
           </widget>
          </item>
          <item row="1" column="0">
           <widget class="QLabel" name="labelNTMABS">
            <property name="minimumSize">
             <size>
              <width>200</width>
              <height>0</height>
             </size>
            </property>
            <property name="toolTip">
             <string>&lt;html&gt;&lt;head/&gt;&lt;body&gt;&lt;p&gt;&lt;span style=&quot; font-size:9pt;&quot;&gt;Specify the total number of iterations (restart included) of the calculation.&lt;/span&gt;&lt;/p&gt;&lt;p&gt;&lt;span style=&quot; font-size:9pt;&quot;&gt;(Code_Saturne key word: &lt;/span&gt;&lt;span style=&quot; font-size:9pt; font-weight:600;&quot;&gt;NTMABS&lt;/span&gt;&lt;span style=&quot; font-size:9pt;&quot;&gt;)&lt;/span&gt;&lt;/p&gt;&lt;/body&gt;&lt;/html&gt;</string>
            </property>
            <property name="text">
             <string>Number of iterations (restart included) </string>
            </property>
           </widget>
          </item>
          <item row="1" column="1">
           <widget class="QLineEdit" name="lineEditNTMABS">
            <property name="minimumSize">
             <size>
              <width>100</width>
              <height>0</height>
             </size>
            </property>
            <property name="maximumSize">
             <size>
              <width>100</width>
              <height>16777215</height>
             </size>
            </property>
            <property name="toolTip">
             <string>&lt;html&gt;&lt;head/&gt;&lt;body&gt;&lt;p&gt;&lt;span style=&quot; font-size:9pt;&quot;&gt;Specify the total number of iterations (restart included) of the calculation.&lt;/span&gt;&lt;/p&gt;&lt;p&gt;&lt;span style=&quot; font-size:9pt;&quot;&gt;(Code_Saturne key word: &lt;/span&gt;&lt;span style=&quot; font-size:9pt; font-weight:600;&quot;&gt;NTMABS&lt;/span&gt;&lt;span style=&quot; font-size:9pt;&quot;&gt;)&lt;/span&gt;&lt;/p&gt;&lt;/body&gt;&lt;/html&gt;</string>
            </property>
           </widget>
          </item>
          <item row="2" column="0">
           <widget class="QLabel" name="labelINPDT0">
            <property name="minimumSize">
             <size>
              <width>200</width>
              <height>0</height>
             </size>
            </property>
            <property name="toolTip">
             <string>&lt;html&gt;&lt;head/&gt;&lt;body&gt;&lt;p&gt;&lt;span style=&quot; font-size:9pt;&quot;&gt;Select a calculation mode between a zero time step control calculation, i.e. without solving the transport equations, and a standard calculation. In case of a calculation using the control mode, when the calculation is not a restart, the equations are not solved, but the physical properties and the boundary conditions are calculated. When the calculation is a restart, the physical properties and the boundary conditions are those read from the restart file (Note: in the case of a second-order time scheme, the mass flow is modified as if a normal time step was realized: the mass flow generated in an potential post-processing is therefore not the mass flow read from the restart file).&lt;/span&gt;&lt;/p&gt;&lt;p&gt;&lt;span style=&quot; font-size:9pt;&quot;&gt;(Code_Saturne key word: &lt;/span&gt;&lt;span style=&quot; font-size:9pt; font-weight:600;&quot;&gt;INPDT0&lt;/span&gt;&lt;span style=&quot; font-size:9pt;&quot;&gt;)&lt;/span&gt;&lt;/p&gt;&lt;/body&gt;&lt;/html&gt;</string>
            </property>
            <property name="text">
             <string>Zero iterations option</string>
            </property>
           </widget>
          </item>
          <item row="2" column="1">
           <widget class="QCheckBox" name="checkBoxINPDT0">
            <property name="toolTip">
             <string>&lt;html&gt;&lt;head/&gt;&lt;body&gt;&lt;p&gt;&lt;span style=&quot; font-size:9pt;&quot;&gt;Select a calculation mode between a zero time step control calculation, i.e. without solving the transport equations, and a standard calculation. In case of a calculation using the control mode, when the calculation is not a restart, the equations are not solved, but the physical properties and the boundary conditions are calculated. When the calculation is a restart, the physical properties and the boundary conditions are those read from the restart file (Note: in the case of a second-order time scheme, the mass flow is modified as if a normal time step was realized: the mass flow generated in an potential post-processing is therefore not the mass flow read from the restart file).&lt;/span&gt;&lt;/p&gt;&lt;p&gt;&lt;span style=&quot; font-size:9pt;&quot;&gt;(Code_Saturne key word: &lt;/span&gt;&lt;span style=&quot; font-size:9pt; font-weight:600;&quot;&gt;INPDT0&lt;/span&gt;&lt;span style=&quot; font-size:9pt;&quot;&gt;)&lt;/span&gt;&lt;/p&gt;&lt;/body&gt;&lt;/html&gt;</string>
            </property>
            <property name="text">
             <string/>
            </property>
           </widget>
          </item>
         </layout>
        </item>
        <item>
         <spacer>
          <property name="orientation">
           <enum>Qt::Horizontal</enum>
          </property>
          <property name="sizeHint" stdset="0">
           <size>
            <width>13</width>
            <height>94</height>
           </size>
          </property>
         </spacer>
        </item>
       </layout>
      </item>
     </layout>
    </widget>
   </item>
   <item row="1" column="0">
    <spacer>
     <property name="orientation">
      <enum>Qt::Vertical</enum>
     </property>
     <property name="sizeHint" stdset="0">
      <size>
       <width>16</width>
       <height>16</height>
      </size>
     </property>
    </spacer>
   </item>
  </layout>
 </widget>
 <resources/>
 <connections/>
</ui>
