<?xml version="1.0" encoding="UTF-8"?>
<ui version="4.0">
 <class>ThermalScalarForm</class>
 <widget class="QWidget" name="ThermalScalarForm">
  <property name="geometry">
   <rect>
    <x>0</x>
    <y>0</y>
    <width>450</width>
    <height>91</height>
   </rect>
  </property>
  <property name="windowTitle">
   <string>Form</string>
  </property>
  <layout class="QGridLayout">
   <item row="0" column="0">
    <widget class="QGroupBox" name="groupBox">
     <property name="toolTip">
      <string>&lt;html&gt;&lt;head/&gt;&lt;body&gt;&lt;p&gt;&lt;span style=&quot; font-size:9pt;&quot;&gt;Select the thermal scalar that will used during the computation. If a scalar is selected, the conjuguate heat transfer and the radiative transfers headings can be filled.&lt;/span&gt;&lt;/p&gt;&lt;p&gt;&lt;span style=&quot; font-size:9pt;&quot;&gt;(Code_Saturne key words: &lt;/span&gt;&lt;span style=&quot; font-size:9pt; font-weight:600;&quot;&gt;ISCALT&lt;/span&gt;&lt;span style=&quot; font-size:9pt;&quot;&gt;, &lt;/span&gt;&lt;span style=&quot; font-size:9pt; font-weight:600;&quot;&gt;ISCSTH&lt;/span&gt;&lt;span style=&quot; font-size:9pt;&quot;&gt;)&lt;/span&gt;&lt;/p&gt;&lt;/body&gt;&lt;/html&gt;</string>
     </property>
     <property name="title">
      <string>Thermal scalar</string>
     </property>
     <property name="flat">
      <bool>false</bool>
     </property>
     <property name="checkable">
      <bool>false</bool>
     </property>
     <property name="checked">
      <bool>false</bool>
     </property>
     <layout class="QGridLayout">
      <property name="leftMargin">
       <number>9</number>
      </property>
      <property name="horizontalSpacing">
       <number>6</number>
      </property>
      <item row="0" column="0">
       <layout class="QHBoxLayout">
        <item>
         <spacer>
          <property name="orientation">
           <enum>Qt::Horizontal</enum>
          </property>
          <property name="sizeHint" stdset="0">
           <size>
            <width>16</width>
            <height>20</height>
           </size>
          </property>
         </spacer>
        </item>
        <item>
         <widget class="QComboBox" name="comboBoxThermal">
          <property name="minimumSize">
           <size>
            <width>300</width>
            <height>0</height>
           </size>
          </property>
          <property name="toolTip">
           <string>&lt;html&gt;&lt;head/&gt;&lt;body&gt;&lt;p&gt;&lt;span style=&quot; font-size:9pt;&quot;&gt;Select the thermal scalar that will used during the computation. If a scalar is selected, the conjuguate heat transfer and the radiative transfers headings can be filled.&lt;/span&gt;&lt;/p&gt;&lt;p&gt;&lt;span style=&quot; font-size:9pt;&quot;&gt;(Code_Saturne key words: &lt;/span&gt;&lt;span style=&quot; font-size:9pt; font-weight:600;&quot;&gt;ISCALT&lt;/span&gt;&lt;span style=&quot; font-size:9pt;&quot;&gt;, &lt;/span&gt;&lt;span style=&quot; font-size:9pt; font-weight:600;&quot;&gt;ISCSTH&lt;/span&gt;&lt;span style=&quot; font-size:9pt;&quot;&gt;)&lt;/span&gt;&lt;/p&gt;&lt;/body&gt;&lt;/html&gt;</string>
          </property>
          <property name="statusTip">
           <string>Select the thermal scalar</string>
          </property>
         </widget>
        </item>
        <item>
         <spacer>
          <property name="orientation">
           <enum>Qt::Horizontal</enum>
          </property>
          <property name="sizeHint" stdset="0">
           <size>
            <width>16</width>
            <height>20</height>
           </size>
          </property>
         </spacer>
        </item>
       </layout>
      </item>
     </layout>
    </widget>
   </item>
   <item row="1" column="0">
    <spacer>
     <property name="orientation">
      <enum>Qt::Vertical</enum>
     </property>
     <property name="sizeHint" stdset="0">
      <size>
       <width>21</width>
       <height>16</height>
      </size>
     </property>
    </spacer>
   </item>
  </layout>
 </widget>
 <resources/>
 <connections/>
</ui>
