<?xml version="1.0" encoding="UTF-8"?>
<ui version="4.0">
 <class>ThermalForm</class>
 <widget class="QWidget" name="ThermalForm">
  <property name="geometry">
   <rect>
    <x>0</x>
    <y>0</y>
    <width>406</width>
    <height>423</height>
   </rect>
  </property>
  <property name="windowTitle">
   <string>Form</string>
  </property>
  <layout class="QGridLayout">
   <item row="1" column="0">
    <widget class="QGroupBox" name="ThermalRadiationGroupBox">
     <property name="title">
      <string>Thermal radiative transfers</string>
     </property>
     <layout class="QVBoxLayout" name="verticalLayout">
      <item>
       <layout class="QHBoxLayout" name="_1">
        <item>
         <spacer>
          <property name="orientation">
           <enum>Qt::Horizontal</enum>
          </property>
          <property name="sizeHint" stdset="0">
           <size>
            <width>40</width>
            <height>20</height>
           </size>
          </property>
         </spacer>
        </item>
        <item>
         <widget class="QComboBox" name="comboBoxRadModel">
          <property name="minimumSize">
           <size>
            <width>300</width>
            <height>0</height>
           </size>
          </property>
          <property name="toolTip">
           <string>&lt;html&gt;&lt;head/&gt;&lt;body&gt;&lt;p&gt;&lt;span style=&quot; font-size:9pt;&quot;&gt;Select and define the thermal radiation model.&lt;/span&gt;&lt;/p&gt;&lt;p&gt;&lt;span style=&quot; font-size:9pt;&quot;&gt;(Code_Saturne key words: &lt;/span&gt;&lt;span style=&quot; font-size:9pt; font-weight:600;&quot;&gt;IIRAYO&lt;/span&gt;&lt;span style=&quot; font-size:9pt;&quot;&gt;)&lt;/span&gt;&lt;/p&gt;&lt;/body&gt;&lt;/html&gt;</string>
          </property>
          <property name="statusTip">
           <string>Select the thermal radiation model</string>
          </property>
         </widget>
        </item>
        <item>
         <spacer>
          <property name="orientation">
           <enum>Qt::Horizontal</enum>
          </property>
          <property name="sizeHint" stdset="0">
           <size>
            <width>40</width>
            <height>20</height>
           </size>
          </property>
         </spacer>
        </item>
       </layout>
      </item>
      <item>
       <widget class="QGroupBox" name="groupBoxDirection">
        <property name="title">
         <string>Quadrature (angular discretization)</string>
        </property>
        <property name="flat">
         <bool>true</bool>
        </property>
        <layout class="QGridLayout" name="gridLayout_2">
         <item row="0" column="3">
          <widget class="QLineEdit" name="lineEditNdirec">
           <property name="maximumSize">
            <size>
             <width>50</width>
             <height>16777215</height>
            </size>
           </property>
           <property name="toolTip">
            <string>&lt;html&gt;&lt;head/&gt;&lt;body&gt;&lt;p&gt;&lt;span style=&quot; font-size:9pt;&quot;&gt;Select the number of directions for angular discretisation.&lt;/span&gt;&lt;/p&gt;&lt;p&gt;&lt;span style=&quot; font-size:9pt;&quot;&gt;(Code_Saturne key words: &lt;/span&gt;&lt;span style=&quot; font-size:9pt; font-weight:600;&quot;&gt;i_quadrature&lt;/span&gt;&lt;span style=&quot; font-size:9pt;&quot;&gt;)&lt;/span&gt;&lt;/p&gt;&lt;/body&gt;&lt;/html&gt;</string>
           </property>
          </widget>
         </item>
         <item row="0" column="2">
          <widget class="QLabel" name="label_2">
           <property name="toolTip">
            <string>&lt;html&gt;&lt;head/&gt;&lt;body&gt;&lt;p&gt;&lt;span style=&quot; font-size:9pt;&quot;&gt;Select the number of directions for angular discretisation.&lt;/span&gt;&lt;/p&gt;&lt;p&gt;&lt;span style=&quot; font-size:9pt;&quot;&gt;(Code_Saturne key words: &lt;/span&gt;&lt;span style=&quot; font-size:9pt; font-weight:600;&quot;&gt;i_quadrature&lt;/span&gt;&lt;span style=&quot; font-size:9pt;&quot;&gt;)&lt;/span&gt;&lt;/p&gt;&lt;/body&gt;&lt;/html&gt;</string>
           </property>
           <property name="text">
            <string> n </string>
           </property>
          </widget>
         </item>
         <item row="0" column="0">
          <spacer name="horizontalSpacer_7">
           <property name="orientation">
            <enum>Qt::Horizontal</enum>
           </property>
           <property name="sizeHint" stdset="0">
            <size>
             <width>13</width>
             <height>20</height>
            </size>
           </property>
          </spacer>
         </item>
         <item row="0" column="1">
          <widget class="QComboBox" name="comboBoxQuadrature">
           <property name="minimumSize">
            <size>
             <width>260</width>
             <height>0</height>
            </size>
           </property>
           <property name="toolTip">
            <string>&lt;html&gt;&lt;head/&gt;&lt;body&gt;&lt;p&gt;&lt;span style=&quot; font-size:9pt;&quot;&gt;Select the number of directions for angular discretisation.&lt;/span&gt;&lt;/p&gt;&lt;p&gt;&lt;span style=&quot; font-size:9pt;&quot;&gt;(Code_Saturne key words: &lt;/span&gt;&lt;span style=&quot; font-size:9pt; font-weight:600;&quot;&gt;i_quadrature&lt;/span&gt;&lt;span style=&quot; font-size:9pt;&quot;&gt;)&lt;/span&gt;&lt;/p&gt;&lt;/body&gt;&lt;/html&gt;</string>
           </property>
          </widget>
         </item>
         <item row="0" column="4">
          <spacer name="horizontalSpacer_8">
           <property name="orientation">
            <enum>Qt::Horizontal</enum>
           </property>
           <property name="sizeHint" stdset="0">
            <size>
             <width>13</width>
             <height>20</height>
            </size>
           </property>
          </spacer>
         </item>
        </layout>
       </widget>
      </item>
      <item>
       <widget class="QGroupBox" name="groupBoxAbsorptionCoeff">
        <property name="toolTip">
         <string>&lt;html&gt;&lt;head/&gt;&lt;body&gt;&lt;p&gt;&lt;span style=&quot; font-size:9pt;&quot;&gt;Define the absorption coefficient. It can be either constant and defined through the GUI, or variable and then must be defined using the user subroutine &lt;/span&gt;&lt;span style=&quot; font-size:9pt; font-style:italic;&quot;&gt;cs_user_rad_transfer_absorption&lt;/span&gt;&lt;span style=&quot; font-size:9pt;&quot;&gt;.&lt;/span&gt;&lt;/p&gt;&lt;/body&gt;&lt;/html&gt;</string>
        </property>
        <property name="title">
         <string>Absorption coefficient</string>
        </property>
        <property name="flat">
         <bool>true</bool>
        </property>
        <layout class="QGridLayout" name="gridLayout_3">
         <item row="0" column="1">
          <widget class="QComboBox" name="comboBoxAbsorption">
           <property name="minimumSize">
            <size>
             <width>180</width>
             <height>0</height>
            </size>
           </property>
           <property name="toolTip">
            <string>&lt;html&gt;&lt;head/&gt;&lt;body&gt;&lt;p&gt;&lt;span style=&quot; font-size:9pt;&quot;&gt;Select the absorption coefficient model.&lt;/span&gt;&lt;/p&gt;&lt;p&gt;In the case of a user function, the cs_user_rad_transfer_absorption function must be programmed by the user.&lt;/p&gt;&lt;/body&gt;&lt;/html&gt;</string>
           </property>
          </widget>
         </item>
         <item row="0" column="0">
          <spacer name="horizontalSpacer_2">
           <property name="orientation">
            <enum>Qt::Horizontal</enum>
           </property>
           <property name="sizeHint" stdset="0">
            <size>
             <width>17</width>
             <height>17</height>
            </size>
           </property>
          </spacer>
         </item>
         <item row="0" column="4">
          <spacer name="horizontalSpacer_3">
           <property name="orientation">
            <enum>Qt::Horizontal</enum>
           </property>
           <property name="sizeHint" stdset="0">
            <size>
             <width>17</width>
             <height>17</height>
            </size>
           </property>
          </spacer>
         </item>
         <item row="0" column="3">
          <widget class="QLabel" name="label">
           <property name="toolTip">
            <string>&lt;html&gt;&lt;head/&gt;&lt;body&gt;&lt;p&gt;&lt;span style=&quot; font-size:9pt;&quot;&gt;If the absorption coefficient is chosen to be constant, this box must be filled.&lt;/span&gt;&lt;/p&gt;&lt;/body&gt;&lt;/html&gt;</string>
           </property>
           <property name="text">
            <string>m&lt;sup&gt;-1&lt;/sup&gt;</string>
           </property>
          </widget>
         </item>
         <item row="0" column="2">
          <widget class="QLineEdit" name="lineEditCoeff">
           <property name="maximumSize">
            <size>
             <width>80</width>
             <height>16777215</height>
            </size>
           </property>
           <property name="toolTip">
            <string>&lt;html&gt;&lt;head/&gt;&lt;body&gt;&lt;p&gt;&lt;span style=&quot; font-size:9pt;&quot;&gt;If the absorption coefficient is chosen to be constant, this box must be filled.&lt;/span&gt;&lt;/p&gt;&lt;/body&gt;&lt;/html&gt;</string>
           </property>
          </widget>
         </item>
        </layout>
       </widget>
      </item>
      <item>
       <widget class="QFrame" name="frameOptions">
        <property name="frameShape">
         <enum>QFrame::NoFrame</enum>
        </property>
        <property name="frameShadow">
         <enum>QFrame::Raised</enum>
        </property>
        <layout class="QVBoxLayout" name="verticalLayout_3">
         <item>
          <layout class="QHBoxLayout" name="_4">
           <item>
            <spacer>
             <property name="orientation">
              <enum>Qt::Horizontal</enum>
             </property>
             <property name="sizeHint" stdset="0">
              <size>
               <width>20</width>
               <height>21</height>
              </size>
             </property>
            </spacer>
           </item>
           <item>
            <widget class="QCheckBox" name="checkBoxRadRestart">
             <property name="toolTip">
              <string>&lt;html&gt;&lt;head/&gt;&lt;body&gt;&lt;p&gt;Use restart info for radiative transfer in case of calculation restart.&lt;/p&gt;&lt;/body&gt;&lt;/html&gt;</string>
             </property>
             <property name="text">
              <string>Restart for radiative calculation</string>
             </property>
            </widget>
           </item>
           <item>
            <spacer>
             <property name="orientation">
              <enum>Qt::Horizontal</enum>
             </property>
             <property name="sizeHint" stdset="0">
              <size>
               <width>16</width>
               <height>16</height>
              </size>
             </property>
            </spacer>
           </item>
          </layout>
         </item>
         <item>
          <layout class="QHBoxLayout" name="_2">
           <item>
            <spacer>
             <property name="orientation">
              <enum>Qt::Horizontal</enum>
             </property>
             <property name="sizeHint" stdset="0">
              <size>
               <width>20</width>
               <height>20</height>
              </size>
             </property>
            </spacer>
           </item>
           <item>
            <widget class="QLabel" name="labelAdvanced">
             <property name="toolTip">
              <string>&lt;html&gt;&lt;head/&gt;&lt;body&gt;&lt;p&gt;&lt;span style=&quot; font-size:9pt;&quot;&gt;Define the resolution frequency, the method to calculate the radiative source term, and verbosity levels for thermal radiative transfers.&lt;/span&gt;&lt;/p&gt;&lt;/body&gt;&lt;/html&gt;</string>
             </property>
             <property name="text">
              <string>Advanced options</string>
             </property>
            </widget>
           </item>
           <item>
            <widget class="QToolButton" name="toolButtonAdvanced">
             <property name="minimumSize">
              <size>
               <width>30</width>
               <height>30</height>
              </size>
             </property>
             <property name="toolTip">
              <string>&lt;html&gt;&lt;head/&gt;&lt;body&gt;&lt;p&gt;&lt;span style=&quot; font-size:9pt;&quot;&gt;Define the resolution frequency, the method to calculate the radiative source term, and verbosity levels for thermal radiative transfers.&lt;/span&gt;&lt;/p&gt;&lt;/body&gt;&lt;/html&gt;</string>
             </property>
             <property name="text">
              <string>...</string>
             </property>
             <property name="icon">
              <iconset resource="resources_pages.qrc">
               <normaloff>:/new/prefix1/icons/22x22/preferences-system.png</normaloff>:/new/prefix1/icons/22x22/preferences-system.png</iconset>
             </property>
             <property name="iconSize">
              <size>
               <width>22</width>
               <height>22</height>
              </size>
             </property>
            </widget>
           </item>
           <item>
            <spacer>
             <property name="orientation">
              <enum>Qt::Horizontal</enum>
             </property>
             <property name="sizeHint" stdset="0">
              <size>
               <width>16</width>
               <height>21</height>
              </size>
             </property>
            </spacer>
           </item>
          </layout>
         </item>
        </layout>
       </widget>
      </item>
     </layout>
    </widget>
   </item>
   <item row="0" column="0">
    <widget class="QGroupBox" name="groupBox">
     <property name="toolTip">
      <string>&lt;html&gt;&lt;head/&gt;&lt;body&gt;&lt;p&gt;&lt;span style=&quot; font-size:9pt;&quot;&gt;Select the thermal scalar that will used during the computation. If a scalar is selected, the conjuguate heat transfer and the radiative transfers headings can be filled.&lt;/span&gt;&lt;/p&gt;&lt;p&gt;&lt;span style=&quot; font-size:9pt;&quot;&gt;(Code_Saturne key words: &lt;/span&gt;&lt;span style=&quot; font-size:9pt; font-weight:600;&quot;&gt;ISCALT&lt;/span&gt;&lt;span style=&quot; font-size:9pt;&quot;&gt;, &lt;/span&gt;&lt;span style=&quot; font-size:9pt; font-weight:600;&quot;&gt;ISCSTH&lt;/span&gt;&lt;span style=&quot; font-size:9pt;&quot;&gt;)&lt;/span&gt;&lt;/p&gt;&lt;/body&gt;&lt;/html&gt;</string>
     </property>
     <property name="title">
      <string>Thermal scalar</string>
     </property>
     <property name="flat">
      <bool>false</bool>
     </property>
     <property name="checkable">
      <bool>false</bool>
     </property>
     <property name="checked">
      <bool>false</bool>
     </property>
     <layout class="QGridLayout">
      <property name="horizontalSpacing">
       <number>6</number>
      </property>
      <property name="leftMargin">
       <number>9</number>
      </property>
      <item row="0" column="0">
       <layout class="QHBoxLayout">
        <item>
         <spacer>
          <property name="orientation">
           <enum>Qt::Horizontal</enum>
          </property>
          <property name="sizeHint" stdset="0">
           <size>
            <width>16</width>
            <height>20</height>
           </size>
          </property>
         </spacer>
        </item>
        <item>
         <widget class="QComboBox" name="comboBoxThermal">
          <property name="minimumSize">
           <size>
            <width>300</width>
            <height>0</height>
           </size>
          </property>
          <property name="toolTip">
           <string>&lt;html&gt;&lt;head/&gt;&lt;body&gt;&lt;p&gt;&lt;span style=&quot; font-size:9pt;&quot;&gt;Select the thermal scalar that will used during the computation. If a scalar is selected, the conjuguate heat transfer and the radiative transfers headings can be filled.&lt;/span&gt;&lt;/p&gt;&lt;p&gt;&lt;span style=&quot; font-size:9pt;&quot;&gt;(Code_Saturne key words: &lt;/span&gt;&lt;span style=&quot; font-size:9pt; font-weight:600;&quot;&gt;ISCALT&lt;/span&gt;&lt;span style=&quot; font-size:9pt;&quot;&gt;, &lt;/span&gt;&lt;span style=&quot; font-size:9pt; font-weight:600;&quot;&gt;ISCSTH&lt;/span&gt;&lt;span style=&quot; font-size:9pt;&quot;&gt;)&lt;/span&gt;&lt;/p&gt;&lt;/body&gt;&lt;/html&gt;</string>
          </property>
          <property name="statusTip">
           <string>Select the thermal scalar</string>
          </property>
         </widget>
        </item>
        <item>
         <spacer>
          <property name="orientation">
           <enum>Qt::Horizontal</enum>
          </property>
          <property name="sizeHint" stdset="0">
           <size>
            <width>16</width>
            <height>20</height>
           </size>
          </property>
         </spacer>
        </item>
       </layout>
      </item>
     </layout>
    </widget>
   </item>
   <item row="3" column="0">
    <spacer>
     <property name="orientation">
      <enum>Qt::Vertical</enum>
     </property>
     <property name="sizeHint" stdset="0">
      <size>
       <width>21</width>
       <height>16</height>
      </size>
     </property>
    </spacer>
   </item>
  </layout>
 </widget>
 <resources>
  <include location="resources_pages.qrc"/>
 </resources>
 <connections/>
</ui>
