<ui version="4.0" >
 <class>ThermalRadiationForm</class>
 <widget class="QWidget" name="ThermalRadiationForm" >
  <property name="geometry" >
   <rect>
    <x>0</x>
    <y>0</y>
    <width>490</width>
    <height>341</height>
   </rect>
  </property>
  <property name="windowTitle" >
   <string>Form</string>
  </property>
  <layout class="QGridLayout" >
   <item row="0" column="0" >
    <widget class="QGroupBox" name="groupBox" >
     <property name="title" >
      <string>Thermal radiative transfers</string>
     </property>
     <layout class="QGridLayout" >
      <item row="0" column="0" >
       <layout class="QHBoxLayout" >
        <item>
         <spacer>
          <property name="orientation" >
           <enum>Qt::Horizontal</enum>
          </property>
          <property name="sizeHint" >
           <size>
            <width>40</width>
            <height>20</height>
           </size>
          </property>
         </spacer>
        </item>
        <item>
         <widget class="QComboBox" name="comboBoxRadModel" >
          <property name="minimumSize" >
           <size>
            <width>300</width>
            <height>0</height>
           </size>
          </property>
          <property name="toolTip" >
           <string>Code_Saturne key words: IRAYON, IRAYPP</string>
          </property>
          <property name="statusTip" >
           <string>Select the thermic radiation model</string>
          </property>
         </widget>
        </item>
        <item>
         <spacer>
          <property name="orientation" >
           <enum>Qt::Horizontal</enum>
          </property>
          <property name="sizeHint" >
           <size>
            <width>40</width>
            <height>20</height>
           </size>
          </property>
         </spacer>
        </item>
       </layout>
      </item>
      <item row="1" column="0" >
       <widget class="Line" name="line" >
        <property name="orientation" >
         <enum>Qt::Horizontal</enum>
        </property>
       </widget>
      </item>
      <item row="2" column="0" >
       <widget class="QFrame" name="frameOptions" >
        <property name="frameShape" >
         <enum>QFrame::NoFrame</enum>
        </property>
        <property name="frameShadow" >
         <enum>QFrame::Raised</enum>
        </property>
        <layout class="QGridLayout" >
         <item row="0" column="0" >
          <layout class="QHBoxLayout" >
           <item>
            <spacer>
             <property name="orientation" >
              <enum>Qt::Horizontal</enum>
             </property>
             <property name="sizeHint" >
              <size>
               <width>20</width>
               <height>21</height>
              </size>
             </property>
            </spacer>
           </item>
           <item>
            <layout class="QHBoxLayout" >
             <item>
              <widget class="QLabel" name="labelRestart" >
               <property name="text" >
                <string>Restart of radiative calculation</string>
               </property>
              </widget>
             </item>
             <item>
              <spacer>
               <property name="orientation" >
                <enum>Qt::Horizontal</enum>
               </property>
               <property name="sizeHint" >
                <size>
                 <width>16</width>
                 <height>16</height>
                </size>
               </property>
              </spacer>
             </item>
             <item>
              <widget class="QRadioButton" name="radioButtonOn" >
               <property name="toolTip" >
                <string>Code_Saturne key words: ISUIRD</string>
               </property>
               <property name="text" >
                <string>on</string>
               </property>
              </widget>
             </item>
             <item>
              <widget class="QRadioButton" name="radioButtonOff" >
               <property name="toolTip" >
                <string>Code_Saturne key words: ISUIRD</string>
               </property>
               <property name="text" >
                <string>off</string>
               </property>
              </widget>
             </item>
            </layout>
           </item>
           <item>
            <spacer>
             <property name="orientation" >
              <enum>Qt::Horizontal</enum>
             </property>
             <property name="sizeHint" >
              <size>
               <width>16</width>
               <height>16</height>
              </size>
             </property>
            </spacer>
           </item>
          </layout>
         </item>
         <item row="1" column="0" >
          <widget class="QFrame" name="frameDirection" >
           <property name="frameShape" >
            <enum>QFrame::NoFrame</enum>
           </property>
           <property name="frameShadow" >
            <enum>QFrame::Raised</enum>
           </property>
           <layout class="QGridLayout" >
            <item row="0" column="0" >
             <layout class="QHBoxLayout" >
              <item>
               <spacer>
                <property name="orientation" >
                 <enum>Qt::Horizontal</enum>
                </property>
                <property name="sizeHint" >
                 <size>
                  <width>16</width>
                  <height>16</height>
                 </size>
                </property>
               </spacer>
              </item>
              <item>
               <layout class="QHBoxLayout" >
                <property name="spacing" >
                 <number>0</number>
                </property>
                <item>
                 <widget class="QLabel" name="labelDirection" >
                  <property name="text" >
                   <string>Number of directions</string>
                  </property>
                 </widget>
                </item>
                <item>
                 <spacer>
                  <property name="orientation" >
                   <enum>Qt::Horizontal</enum>
                  </property>
                  <property name="sizeHint" >
                   <size>
                    <width>20</width>
                    <height>20</height>
                   </size>
                  </property>
                 </spacer>
                </item>
                <item>
                 <widget class="QComboBox" name="comboBoxDirection" >
                  <property name="toolTip" >
                   <string>Code_Saturne key words: NDIREC</string>
                  </property>
                 </widget>
                </item>
               </layout>
              </item>
              <item>
               <spacer>
                <property name="orientation" >
                 <enum>Qt::Horizontal</enum>
                </property>
                <property name="sizeHint" >
                 <size>
                  <width>20</width>
                  <height>20</height>
                 </size>
                </property>
               </spacer>
              </item>
             </layout>
            </item>
           </layout>
          </widget>
         </item>
         <item row="2" column="0" >
          <layout class="QHBoxLayout" >
           <item>
            <spacer>
             <property name="orientation" >
              <enum>Qt::Horizontal</enum>
             </property>
             <property name="sizeHint" >
              <size>
               <width>20</width>
               <height>20</height>
              </size>
             </property>
            </spacer>
           </item>
           <item>
            <layout class="QHBoxLayout" >
             <item>
              <widget class="QLabel" name="label" >
               <property name="text" >
                <string>Absorption coefficient</string>
               </property>
              </widget>
             </item>
             <item>
              <spacer>
               <property name="orientation" >
                <enum>Qt::Horizontal</enum>
               </property>
               <property name="sizeHint" >
                <size>
                 <width>20</width>
                 <height>21</height>
                </size>
               </property>
              </spacer>
             </item>
             <item>
              <widget class="QComboBox" name="comboBoxAbsorption" />
             </item>
            </layout>
           </item>
           <item>
            <spacer>
             <property name="orientation" >
              <enum>Qt::Horizontal</enum>
             </property>
             <property name="sizeHint" >
              <size>
               <width>16</width>
               <height>16</height>
              </size>
             </property>
            </spacer>
           </item>
          </layout>
         </item>
         <item row="3" column="0" >
          <layout class="QHBoxLayout" >
           <item>
            <spacer>
             <property name="orientation" >
              <enum>Qt::Horizontal</enum>
             </property>
             <property name="sizeHint" >
              <size>
               <width>20</width>
               <height>20</height>
              </size>
             </property>
            </spacer>
           </item>
           <item>
            <widget class="QLabel" name="labelVariCoeff" >
             <property name="font" >
              <font>
               <pointsize>10</pointsize>
               <weight>75</weight>
               <bold>true</bold>
              </font>
             </property>
             <property name="text" >
              <string>You have to complete USRAY3.F</string>
             </property>
            </widget>
           </item>
           <item>
            <spacer>
             <property name="orientation" >
              <enum>Qt::Horizontal</enum>
             </property>
             <property name="sizeHint" >
              <size>
               <width>16</width>
               <height>21</height>
              </size>
             </property>
            </spacer>
           </item>
          </layout>
         </item>
         <item row="4" column="0" >
          <layout class="QHBoxLayout" >
           <item>
            <spacer>
             <property name="orientation" >
              <enum>Qt::Horizontal</enum>
             </property>
             <property name="sizeHint" >
              <size>
               <width>20</width>
               <height>20</height>
              </size>
             </property>
            </spacer>
           </item>
           <item>
            <widget class="QLineEdit" name="lineEditCoeff" >
             <property name="maximumSize" >
              <size>
               <width>80</width>
               <height>16777215</height>
              </size>
             </property>
            </widget>
           </item>
           <item>
            <spacer>
             <property name="orientation" >
              <enum>Qt::Horizontal</enum>
             </property>
             <property name="sizeHint" >
              <size>
               <width>16</width>
               <height>21</height>
              </size>
             </property>
            </spacer>
           </item>
          </layout>
         </item>
         <item row="5" column="0" >
          <layout class="QHBoxLayout" >
           <item>
            <spacer>
             <property name="orientation" >
              <enum>Qt::Horizontal</enum>
             </property>
             <property name="sizeHint" >
              <size>
               <width>20</width>
               <height>20</height>
              </size>
             </property>
            </spacer>
           </item>
           <item>
            <layout class="QHBoxLayout" >
             <item>
              <widget class="QLabel" name="labelAdvanced" >
               <property name="text" >
                <string>Advanced options</string>
               </property>
              </widget>
             </item>
             <item>
              <spacer>
               <property name="orientation" >
                <enum>Qt::Horizontal</enum>
               </property>
               <property name="sizeHint" >
                <size>
                 <width>20</width>
                 <height>20</height>
                </size>
               </property>
              </spacer>
             </item>
             <item>
              <widget class="QToolButton" name="toolButtonAdvanced" >
               <property name="minimumSize" >
                <size>
                 <width>30</width>
                 <height>30</height>
                </size>
               </property>
               <property name="text" >
                <string>...</string>
               </property>
              </widget>
             </item>
            </layout>
           </item>
           <item>
            <spacer>
             <property name="orientation" >
              <enum>Qt::Horizontal</enum>
             </property>
             <property name="sizeHint" >
              <size>
               <width>16</width>
               <height>21</height>
              </size>
             </property>
            </spacer>
           </item>
          </layout>
         </item>
        </layout>
       </widget>
      </item>
     </layout>
    </widget>
   </item>
   <item row="1" column="0" >
    <spacer>
     <property name="orientation" >
      <enum>Qt::Vertical</enum>
     </property>
     <property name="sizeHint" >
      <size>
       <width>16</width>
       <height>16</height>
      </size>
     </property>
    </spacer>
   </item>
  </layout>
 </widget>
 <tabstops>
  <tabstop>comboBoxRadModel</tabstop>
  <tabstop>radioButtonOn</tabstop>
  <tabstop>radioButtonOff</tabstop>
  <tabstop>comboBoxDirection</tabstop>
  <tabstop>comboBoxAbsorption</tabstop>
  <tabstop>lineEditCoeff</tabstop>
  <tabstop>toolButtonAdvanced</tabstop>
 </tabstops>
 <resources/>
 <connections/>
</ui>
