<ui version="4.0" >
 <class>WelcomeForm</class>
 <widget class="QWidget" name="WelcomeForm" >
  <property name="geometry" >
   <rect>
    <x>0</x>
    <y>0</y>
    <width>450</width>
    <height>450</height>
   </rect>
  </property>
  <property name="windowTitle" >
   <string>Welcome to Code_Saturne GUI</string>
  </property>
  <property name="statusTip" >
   <string>Welcome to Code_Saturne GUI.</string>
  </property>
  <layout class="QGridLayout" >
   <item row="0" column="1" >
    <spacer>
     <property name="orientation" >
      <enum>Qt::Vertical</enum>
     </property>
     <property name="sizeHint" >
      <size>
       <width>20</width>
       <height>20</height>
      </size>
     </property>
    </spacer>
   </item>
   <item row="1" column="0" >
    <spacer>
     <property name="orientation" >
      <enum>Qt::Horizontal</enum>
     </property>
     <property name="sizeHint" >
      <size>
       <width>16</width>
       <height>16</height>
      </size>
     </property>
    </spacer>
   </item>
   <item row="1" column="1" >
    <layout class="QGridLayout" >
     <item row="0" column="0" >
      <layout class="QHBoxLayout" >
       <item>
        <spacer>
         <property name="orientation" >
          <enum>Qt::Horizontal</enum>
         </property>
         <property name="sizeHint" >
          <size>
           <width>40</width>
           <height>20</height>
          </size>
         </property>
        </spacer>
       </item>
       <item>
        <widget class="QLabel" name="label_title" >
         <property name="text" >
          <string>Welcome to SaturneGUI </string>
         </property>
        </widget>
       </item>
       <item>
        <spacer>
         <property name="orientation" >
          <enum>Qt::Horizontal</enum>
         </property>
         <property name="sizeHint" >
          <size>
           <width>40</width>
           <height>20</height>
          </size>
         </property>
        </spacer>
       </item>
      </layout>
     </item>
     <item row="1" column="0" >
      <widget class="QLabel" name="label_image" >
       <property name="text" >
        <string/>
       </property>
       <property name="pixmap" >
        <pixmap resource="resources_pages.qrc" >:/new/prefix1/icons/welcome.gif</pixmap>
       </property>
      </widget>
     </item>
    </layout>
   </item>
   <item row="1" column="2" >
    <spacer>
     <property name="orientation" >
      <enum>Qt::Horizontal</enum>
     </property>
     <property name="sizeHint" >
      <size>
       <width>20</width>
       <height>16</height>
      </size>
     </property>
    </spacer>
   </item>
   <item row="2" column="1" >
    <spacer>
     <property name="orientation" >
      <enum>Qt::Vertical</enum>
     </property>
     <property name="sizeHint" >
      <size>
       <width>20</width>
       <height>20</height>
      </size>
     </property>
    </spacer>
   </item>
  </layout>
 </widget>
 <resources>
  <include location="resources_pages.qrc" />
 </resources>
 <connections/>
</ui>
