# Makefile.in generated by automake 1.10.2 from Makefile.am.
# @configure_input@

# Copyright (C) 1994, 1995, 1996, 1997, 1998, 1999, 2000, 2001, 2002,
# 2003, 2004, 2005, 2006, 2007, 2008  Free Software Foundation, Inc.
# This Makefile.in is free software; the Free Software Foundation
# gives unlimited permission to copy and/or distribute it,
# with or without modifications, as long as this notice is preserved.

# This program is distributed in the hope that it will be useful,
# but WITHOUT ANY WARRANTY, to the extent permitted by law; without
# even the implied warranty of MERCHANTABILITY or FITNESS FOR A
# PARTICULAR PURPOSE.

@SET_MAKE@

#------------------------------------------------------------------------------
#   This file is part of the Code_Saturne Kernel, element of the
#   Code_Saturne CFD tool.
#
#   Copyright (C) 2009 EDF S.A., France
#
#   The Code_Saturne Kernel is free software; you can redistribute it
#   and/or modify it under the terms of the GNU General Public License
#   as published by the Free Software Foundation; either version 2 of
#   the License, or (at your option) any later version.
#
#   The Code_Saturne Kernel is distributed in the hope that it will be
#   useful, but WITHOUT ANY WARRANTY; without even the implied warranty
#   of MERCHANTABILITY or FITNESS FOR A PARTICULAR PURPOSE.  See the
#   GNU General Public License for more details.
#
#   You should have received a copy of the GNU General Public Licence
#   along with the Code_Saturne Kernel; if not, write to the
#   Free Software Foundation, Inc.,
#   51 Franklin St, Fifth Floor, Boston, MA  02110-1301  USA
#-------------------------------------------------------------------------------

# Main LaTeX document
VPATH = @srcdir@
pkgdatadir = $(datadir)/@PACKAGE@
pkglibdir = $(libdir)/@PACKAGE@
pkgincludedir = $(includedir)/@PACKAGE@
am__cd = CDPATH="$${ZSH_VERSION+.}$(PATH_SEPARATOR)" && cd
install_sh_DATA = $(install_sh) -c -m 644
install_sh_PROGRAM = $(install_sh) -c
install_sh_SCRIPT = $(install_sh) -c
INSTALL_HEADER = $(INSTALL_DATA)
transform = $(program_transform_name)
NORMAL_INSTALL = :
PRE_INSTALL = :
POST_INSTALL = :
NORMAL_UNINSTALL = :
PRE_UNINSTALL = :
POST_UNINSTALL = :
build_triplet = @build@
host_triplet = @host@
target_triplet = @target@
subdir = doc/developper
DIST_COMMON = $(srcdir)/Makefile.am $(srcdir)/Makefile.in
ACLOCAL_M4 = $(top_srcdir)/aclocal.m4
am__aclocal_m4_deps = $(top_srcdir)/config/cs_bft.m4 \
	$(top_srcdir)/config/cs_blas.m4 \
	$(top_srcdir)/config/cs_config_info.m4 \
	$(top_srcdir)/config/cs_fortran.m4 \
	$(top_srcdir)/config/cs_fvm.m4 \
	$(top_srcdir)/config/cs_libxml2.m4 \
	$(top_srcdir)/config/cs_mei.m4 $(top_srcdir)/config/cs_mpi.m4 \
	$(top_srcdir)/config/cs_syrthes.m4 \
	$(top_srcdir)/config/gettext.m4 $(top_srcdir)/config/iconv.m4 \
	$(top_srcdir)/config/lib-ld.m4 \
	$(top_srcdir)/config/lib-link.m4 \
	$(top_srcdir)/config/lib-prefix.m4 \
	$(top_srcdir)/config/libtool.m4 \
	$(top_srcdir)/config/ltoptions.m4 \
	$(top_srcdir)/config/ltsugar.m4 \
	$(top_srcdir)/config/ltversion.m4 \
	$(top_srcdir)/config/lt~obsolete.m4 \
	$(top_srcdir)/config/nls.m4 $(top_srcdir)/config/po.m4 \
	$(top_srcdir)/config/progtest.m4 $(top_srcdir)/configure.ac
am__configure_deps = $(am__aclocal_m4_deps) $(CONFIGURE_DEPENDENCIES) \
	$(ACLOCAL_M4)
mkinstalldirs = $(install_sh) -d
CONFIG_HEADER = $(top_builddir)/cs_config.h
CONFIG_CLEAN_FILES =
SOURCES =
DIST_SOURCES =
RECURSIVE_TARGETS = all-recursive check-recursive dvi-recursive \
	html-recursive info-recursive install-data-recursive \
	install-dvi-recursive install-exec-recursive \
	install-html-recursive install-info-recursive \
	install-pdf-recursive install-ps-recursive install-recursive \
	installcheck-recursive installdirs-recursive pdf-recursive \
	ps-recursive uninstall-recursive
RECURSIVE_CLEAN_TARGETS = mostlyclean-recursive clean-recursive	\
  distclean-recursive maintainer-clean-recursive
ETAGS = etags
CTAGS = ctags
DIST_SUBDIRS = $(SUBDIRS)
DISTFILES = $(DIST_COMMON) $(DIST_SOURCES) $(TEXINFOS) $(EXTRA_DIST)
ACLOCAL = @ACLOCAL@
AMTAR = @AMTAR@
AR = @AR@
AUTOCONF = @AUTOCONF@
AUTOHEADER = @AUTOHEADER@
AUTOMAKE = @AUTOMAKE@
AWK = @AWK@
BFT_CPPFLAGS = @BFT_CPPFLAGS@
BFT_LDFLAGS = @BFT_LDFLAGS@
BFT_LIBS = @BFT_LIBS@
BLAS_CPPFLAGS = @BLAS_CPPFLAGS@
BLAS_LDFLAGS = @BLAS_LDFLAGS@
BLAS_LIBS = @BLAS_LIBS@
CC = @CC@
CCDEPMODE = @CCDEPMODE@
CFLAGS = @CFLAGS@
CFLAGS_DBG = @CFLAGS_DBG@
CFLAGS_EXT = @CFLAGS_EXT@
CFLAGS_HOT = @CFLAGS_HOT@
CFLAGS_OPT = @CFLAGS_OPT@
CPP = @CPP@
CPPFLAGS = @CPPFLAGS@
CYGPATH_W = @CYGPATH_W@
DEFS = @DEFS@
DEPDIR = @DEPDIR@
DSYMUTIL = @DSYMUTIL@
DUMPBIN = @DUMPBIN@
ECHO_C = @ECHO_C@
ECHO_N = @ECHO_N@
ECHO_T = @ECHO_T@
EGREP = @EGREP@
EXEEXT = @EXEEXT@
F77 = @F77@
FC = @FC@
FCFLAGS = @FCFLAGS@
FCFLAGS_DBG = @FCFLAGS_DBG@
FCFLAGS_HOT = @FCFLAGS_HOT@
FCFLAGS_OPT = @FCFLAGS_OPT@
FCLIBS = @FCLIBS@
FFLAGS = @FFLAGS@
FGREP = @FGREP@
FLIBS = @FLIBS@
FVM_COUPL_LDFLAGS = @FVM_COUPL_LDFLAGS@
FVM_COUPL_LIBS = @FVM_COUPL_LIBS@
FVM_CPPFLAGS = @FVM_CPPFLAGS@
FVM_LDFLAGS = @FVM_LDFLAGS@
FVM_LIBS = @FVM_LIBS@
GETTEXT_MACRO_VERSION = @GETTEXT_MACRO_VERSION@
GMSGFMT = @GMSGFMT@
GMSGFMT_015 = @GMSGFMT_015@
GREP = @GREP@
INSTALL = @INSTALL@
INSTALL_DATA = @INSTALL_DATA@
INSTALL_PROGRAM = @INSTALL_PROGRAM@
INSTALL_SCRIPT = @INSTALL_SCRIPT@
INSTALL_STRIP_PROGRAM = @INSTALL_STRIP_PROGRAM@
INTLLIBS = @INTLLIBS@
INTL_MACOSX_LIBS = @INTL_MACOSX_LIBS@
LD = @LD@
LDFLAGS = @LDFLAGS@
LDRPATH = @LDRPATH@
LIBICONV = @LIBICONV@
LIBINTL = @LIBINTL@
LIBOBJS = @LIBOBJS@
LIBS = @LIBS@
LIBTOOL = @LIBTOOL@
LIBXML2_CPPFLAGS = @LIBXML2_CPPFLAGS@
LIBXML2_LDFLAGS = @LIBXML2_LDFLAGS@
LIBXML2_LIBS = @LIBXML2_LIBS@
LIPO = @LIPO@
LN_S = @LN_S@
LTLIBICONV = @LTLIBICONV@
LTLIBINTL = @LTLIBINTL@
LTLIBOBJS = @LTLIBOBJS@
MAINT = @MAINT@
MAKEINFO = @MAKEINFO@
MEI_CPPFLAGS = @MEI_CPPFLAGS@
MEI_LDFLAGS = @MEI_LDFLAGS@
MEI_LIBS = @MEI_LIBS@
MKDIR_P = @MKDIR_P@
MPI_CPPFLAGS = @MPI_CPPFLAGS@
MPI_LDFLAGS = @MPI_LDFLAGS@
MPI_LIBS = @MPI_LIBS@
MSGFMT = @MSGFMT@
MSGFMT_015 = @MSGFMT_015@
MSGMERGE = @MSGMERGE@
NM = @NM@
NMEDIT = @NMEDIT@
OBJDUMP = @OBJDUMP@
OBJEXT = @OBJEXT@
OTOOL = @OTOOL@
OTOOL64 = @OTOOL64@
PACKAGE = @PACKAGE@
PACKAGE_BUGREPORT = @PACKAGE_BUGREPORT@
PACKAGE_NAME = @PACKAGE_NAME@
PACKAGE_STRING = @PACKAGE_STRING@
PACKAGE_TARNAME = @PACKAGE_TARNAME@
PACKAGE_VERSION = @PACKAGE_VERSION@
PATH_SEPARATOR = @PATH_SEPARATOR@
POSUB = @POSUB@
PYEXE = @PYEXE@
PYTHON = @PYTHON@
PYTHON_EXEC_PREFIX = @PYTHON_EXEC_PREFIX@
PYTHON_PLATFORM = @PYTHON_PLATFORM@
PYTHON_PREFIX = @PYTHON_PREFIX@
PYTHON_VERSION = @PYTHON_VERSION@
RANLIB = @RANLIB@
SED = @SED@
SET_MAKE = @SET_MAKE@
SHELL = @SHELL@
STRIP = @STRIP@
SYRTHES_CC = @SYRTHES_CC@
SYRTHES_CFLAGS = @SYRTHES_CFLAGS@
SYRTHES_CPPFLAGS = @SYRTHES_CPPFLAGS@
SYRTHES_FC = @SYRTHES_FC@
SYRTHES_FCFLAGS = @SYRTHES_FCFLAGS@
SYRTHES_FCLIBS = @SYRTHES_FCLIBS@
SYRTHES_LDFLAGS = @SYRTHES_LDFLAGS@
SYRTHES_LIBS = @SYRTHES_LIBS@
USE_NLS = @USE_NLS@
VERSION = @VERSION@
XGETTEXT = @XGETTEXT@
XGETTEXT_015 = @XGETTEXT_015@
XGETTEXT_EXTRA_OPTIONS = @XGETTEXT_EXTRA_OPTIONS@
abs_builddir = @abs_builddir@
abs_srcdir = @abs_srcdir@
abs_top_builddir = @abs_top_builddir@
abs_top_srcdir = @abs_top_srcdir@
ac_aux_dir = @ac_aux_dir@
ac_ct_CC = @ac_ct_CC@
ac_ct_DUMPBIN = @ac_ct_DUMPBIN@
ac_ct_F77 = @ac_ct_F77@
ac_ct_FC = @ac_ct_FC@
am__include = @am__include@
am__leading_dot = @am__leading_dot@
am__quote = @am__quote@
am__tar = @am__tar@
am__untar = @am__untar@
bindir = @bindir@
build = @build@
build_alias = @build_alias@
build_cpu = @build_cpu@
build_os = @build_os@
build_vendor = @build_vendor@
builddir = @builddir@
cs_python = @cs_python@
datadir = @datadir@
datarootdir = @datarootdir@
docdir = @docdir@
dvidir = @dvidir@
ecs_prefix = @ecs_prefix@
exec_prefix = @exec_prefix@
host = @host@
host_alias = @host_alias@
host_cpu = @host_cpu@
host_os = @host_os@
host_vendor = @host_vendor@
htmldir = @htmldir@
includedir = @includedir@
infodir = @infodir@
install_sh = @install_sh@
libdir = @libdir@
libexecdir = @libexecdir@
localedir = @localedir@
localstatedir = @localstatedir@
lt_ECHO = @lt_ECHO@
mandir = @mandir@
mei_prefix = @mei_prefix@
mkdir_p = @mkdir_p@
mpi_bindir = @mpi_bindir@
mpi_libdir = @mpi_libdir@
mpi_type = @mpi_type@
oldincludedir = @oldincludedir@
pdfdir = @pdfdir@
pkgpyexecdir = @pkgpyexecdir@
pkgpythondir = @pkgpythondir@
prefix = @prefix@
program_transform_name = @program_transform_name@
psdir = @psdir@
pyexecdir = @pyexecdir@
pythondir = @pythondir@
sbindir = @sbindir@
sharedstatedir = @sharedstatedir@
srcdir = @srcdir@
syrthes_prefix = @syrthes_prefix@
sysconfdir = @sysconfdir@
target = @target@
target_alias = @target_alias@
target_cpu = @target_cpu@
target_os = @target_os@
target_vendor = @target_vendor@
top_build_prefix = @top_build_prefix@
top_builddir = @top_builddir@
top_srcdir = @top_srcdir@
TEXMAIN = developper.tex

# Other LaTex document
TEXOTHERS = 
TEXINPUTFILES = 

# Distributed files
EXTRA_DIST = $(TEXMAIN) $(TEXOTHERS) $(TEXINPUTFILES)

# Subdirectories (order is important)
SUBDIRS = graphics .

# Environment variables for LaTeX
TEXINPUTS = $(top_srcdir)/doc/style/:$(top_builddir)/doc/style/:$(srcdir)//:$(builddir)//:
BIBINPUTS = $(top_srcdir)/doc/style/:
BSTINPUTS = $(top_srcdir)/doc/style/:

# LaTeX commands
PDFLATEX = export TEXINPUTS="$(TEXINPUTS)"; pdflatex
BIBTEX = export BIBINPUTS="$(BIBINPUTS)"; bibtex

# Generated documents (pdf and index files)
PDFMAIN = $(TEXMAIN:.tex=.pdf)
all: all-recursive

.SUFFIXES:
$(srcdir)/Makefile.in: @MAINTAINER_MODE_TRUE@ $(srcdir)/Makefile.am  $(am__configure_deps)
	@for dep in $?; do \
	  case '$(am__configure_deps)' in \
	    *$$dep*) \
	      ( cd $(top_builddir) && $(MAKE) $(AM_MAKEFLAGS) am--refresh ) \
	        && { if test -f $@; then exit 0; else break; fi; }; \
	      exit 1;; \
	  esac; \
	done; \
	echo ' cd $(top_srcdir) && $(AUTOMAKE) --gnu  doc/developper/Makefile'; \
	cd $(top_srcdir) && \
	  $(AUTOMAKE) --gnu  doc/developper/Makefile
.PRECIOUS: Makefile
Makefile: $(srcdir)/Makefile.in $(top_builddir)/config.status
	@case '$?' in \
	  *config.status*) \
	    cd $(top_builddir) && $(MAKE) $(AM_MAKEFLAGS) am--refresh;; \
	  *) \
	    echo ' cd $(top_builddir) && $(SHELL) ./config.status $(subdir)/$@ $(am__depfiles_maybe)'; \
	    cd $(top_builddir) && $(SHELL) ./config.status $(subdir)/$@ $(am__depfiles_maybe);; \
	esac;

$(top_builddir)/config.status: $(top_srcdir)/configure $(CONFIG_STATUS_DEPENDENCIES)
	cd $(top_builddir) && $(MAKE) $(AM_MAKEFLAGS) am--refresh

$(top_srcdir)/configure: @MAINTAINER_MODE_TRUE@ $(am__configure_deps)
	cd $(top_builddir) && $(MAKE) $(AM_MAKEFLAGS) am--refresh
$(ACLOCAL_M4): @MAINTAINER_MODE_TRUE@ $(am__aclocal_m4_deps)
	cd $(top_builddir) && $(MAKE) $(AM_MAKEFLAGS) am--refresh

mostlyclean-libtool:
	-rm -f *.lo

clean-libtool:
	-rm -rf .libs _libs

# This directory's subdirectories are mostly independent; you can cd
# into them and run `make' without going through this Makefile.
# To change the values of `make' variables: instead of editing Makefiles,
# (1) if the variable is set in `config.status', edit `config.status'
#     (which will cause the Makefiles to be regenerated when you run `make');
# (2) otherwise, pass the desired values on the `make' command line.
$(RECURSIVE_TARGETS):
	@failcom='exit 1'; \
	for f in x $$MAKEFLAGS; do \
	  case $$f in \
	    *=* | --[!k]*);; \
	    *k*) failcom='fail=yes';; \
	  esac; \
	done; \
	dot_seen=no; \
	target=`echo $@ | sed s/-recursive//`; \
	list='$(SUBDIRS)'; for subdir in $$list; do \
	  echo "Making $$target in $$subdir"; \
	  if test "$$subdir" = "."; then \
	    dot_seen=yes; \
	    local_target="$$target-am"; \
	  else \
	    local_target="$$target"; \
	  fi; \
	  (cd $$subdir && $(MAKE) $(AM_MAKEFLAGS) $$local_target) \
	  || eval $$failcom; \
	done; \
	if test "$$dot_seen" = "no"; then \
	  $(MAKE) $(AM_MAKEFLAGS) "$$target-am" || exit 1; \
	fi; test -z "$$fail"

$(RECURSIVE_CLEAN_TARGETS):
	@failcom='exit 1'; \
	for f in x $$MAKEFLAGS; do \
	  case $$f in \
	    *=* | --[!k]*);; \
	    *k*) failcom='fail=yes';; \
	  esac; \
	done; \
	dot_seen=no; \
	case "$@" in \
	  distclean-* | maintainer-clean-*) list='$(DIST_SUBDIRS)' ;; \
	  *) list='$(SUBDIRS)' ;; \
	esac; \
	rev=''; for subdir in $$list; do \
	  if test "$$subdir" = "."; then :; else \
	    rev="$$subdir $$rev"; \
	  fi; \
	done; \
	rev="$$rev ."; \
	target=`echo $@ | sed s/-recursive//`; \
	for subdir in $$rev; do \
	  echo "Making $$target in $$subdir"; \
	  if test "$$subdir" = "."; then \
	    local_target="$$target-am"; \
	  else \
	    local_target="$$target"; \
	  fi; \
	  (cd $$subdir && $(MAKE) $(AM_MAKEFLAGS) $$local_target) \
	  || eval $$failcom; \
	done && test -z "$$fail"
tags-recursive:
	list='$(SUBDIRS)'; for subdir in $$list; do \
	  test "$$subdir" = . || (cd $$subdir && $(MAKE) $(AM_MAKEFLAGS) tags); \
	done
ctags-recursive:
	list='$(SUBDIRS)'; for subdir in $$list; do \
	  test "$$subdir" = . || (cd $$subdir && $(MAKE) $(AM_MAKEFLAGS) ctags); \
	done

ID: $(HEADERS) $(SOURCES) $(LISP) $(TAGS_FILES)
	list='$(SOURCES) $(HEADERS) $(LISP) $(TAGS_FILES)'; \
	unique=`for i in $$list; do \
	    if test -f "$$i"; then echo $$i; else echo $(srcdir)/$$i; fi; \
	  done | \
	  $(AWK) '{ files[$$0] = 1; nonempty = 1; } \
	      END { if (nonempty) { for (i in files) print i; }; }'`; \
	mkid -fID $$unique
tags: TAGS

TAGS: tags-recursive $(HEADERS) $(SOURCES)  $(TAGS_DEPENDENCIES) \
		$(TAGS_FILES) $(LISP)
	tags=; \
	here=`pwd`; \
	if ($(ETAGS) --etags-include --version) >/dev/null 2>&1; then \
	  include_option=--etags-include; \
	  empty_fix=.; \
	else \
	  include_option=--include; \
	  empty_fix=; \
	fi; \
	list='$(SUBDIRS)'; for subdir in $$list; do \
	  if test "$$subdir" = .; then :; else \
	    test ! -f $$subdir/TAGS || \
	      tags="$$tags $$include_option=$$here/$$subdir/TAGS"; \
	  fi; \
	done; \
	list='$(SOURCES) $(HEADERS)  $(LISP) $(TAGS_FILES)'; \
	unique=`for i in $$list; do \
	    if test -f "$$i"; then echo $$i; else echo $(srcdir)/$$i; fi; \
	  done | \
	  $(AWK) '{ files[$$0] = 1; nonempty = 1; } \
	      END { if (nonempty) { for (i in files) print i; }; }'`; \
	if test -z "$(ETAGS_ARGS)$$tags$$unique"; then :; else \
	  test -n "$$unique" || unique=$$empty_fix; \
	  $(ETAGS) $(ETAGSFLAGS) $(AM_ETAGSFLAGS) $(ETAGS_ARGS) \
	    $$tags $$unique; \
	fi
ctags: CTAGS
CTAGS: ctags-recursive $(HEADERS) $(SOURCES)  $(TAGS_DEPENDENCIES) \
		$(TAGS_FILES) $(LISP)
	tags=; \
	list='$(SOURCES) $(HEADERS)  $(LISP) $(TAGS_FILES)'; \
	unique=`for i in $$list; do \
	    if test -f "$$i"; then echo $$i; else echo $(srcdir)/$$i; fi; \
	  done | \
	  $(AWK) '{ files[$$0] = 1; nonempty = 1; } \
	      END { if (nonempty) { for (i in files) print i; }; }'`; \
	test -z "$(CTAGS_ARGS)$$tags$$unique" \
	  || $(CTAGS) $(CTAGSFLAGS) $(AM_CTAGSFLAGS) $(CTAGS_ARGS) \
	     $$tags $$unique

GTAGS:
	here=`$(am__cd) $(top_builddir) && pwd` \
	  && cd $(top_srcdir) \
	  && gtags -i $(GTAGS_ARGS) $$here

distclean-tags:
	-rm -f TAGS ID GTAGS GRTAGS GSYMS GPATH tags

distdir: $(DISTFILES)
	@srcdirstrip=`echo "$(srcdir)" | sed 's/[].[^$$\\*]/\\\\&/g'`; \
	topsrcdirstrip=`echo "$(top_srcdir)" | sed 's/[].[^$$\\*]/\\\\&/g'`; \
	list='$(DISTFILES)'; \
	  dist_files=`for file in $$list; do echo $$file; done | \
	  sed -e "s|^$$srcdirstrip/||;t" \
	      -e "s|^$$topsrcdirstrip/|$(top_builddir)/|;t"`; \
	case $$dist_files in \
	  */*) $(MKDIR_P) `echo "$$dist_files" | \
			   sed '/\//!d;s|^|$(distdir)/|;s,/[^/]*$$,,' | \
			   sort -u` ;; \
	esac; \
	for file in $$dist_files; do \
	  if test -f $$file || test -d $$file; then d=.; else d=$(srcdir); fi; \
	  if test -d $$d/$$file; then \
	    dir=`echo "/$$file" | sed -e 's,/[^/]*$$,,'`; \
	    if test -d $(srcdir)/$$file && test $$d != $(srcdir); then \
	      cp -pR $(srcdir)/$$file $(distdir)$$dir || exit 1; \
	    fi; \
	    cp -pR $$d/$$file $(distdir)$$dir || exit 1; \
	  else \
	    test -f $(distdir)/$$file \
	    || cp -p $$d/$$file $(distdir)/$$file \
	    || exit 1; \
	  fi; \
	done
	list='$(DIST_SUBDIRS)'; for subdir in $$list; do \
	  if test "$$subdir" = .; then :; else \
	    test -d "$(distdir)/$$subdir" \
	    || $(MKDIR_P) "$(distdir)/$$subdir" \
	    || exit 1; \
	    distdir=`$(am__cd) $(distdir) && pwd`; \
	    top_distdir=`$(am__cd) $(top_distdir) && pwd`; \
	    (cd $$subdir && \
	      $(MAKE) $(AM_MAKEFLAGS) \
	        top_distdir="$$top_distdir" \
	        distdir="$$distdir/$$subdir" \
		am__remove_distdir=: \
		am__skip_length_check=: \
	        distdir) \
	      || exit 1; \
	  fi; \
	done
check-am: all-am
check: check-recursive
all-am: Makefile
installdirs: installdirs-recursive
installdirs-am:
install: install-recursive
install-exec: install-exec-recursive
install-data: install-data-recursive
uninstall: uninstall-recursive

install-am: all-am
	@$(MAKE) $(AM_MAKEFLAGS) install-exec-am install-data-am

installcheck: installcheck-recursive
install-strip:
	$(MAKE) $(AM_MAKEFLAGS) INSTALL_PROGRAM="$(INSTALL_STRIP_PROGRAM)" \
	  install_sh_PROGRAM="$(INSTALL_STRIP_PROGRAM)" INSTALL_STRIP_FLAG=-s \
	  `test -z '$(STRIP)' || \
	    echo "INSTALL_PROGRAM_ENV=STRIPPROG='$(STRIP)'"` install
mostlyclean-generic:

clean-generic:

distclean-generic:
	-test -z "$(CONFIG_CLEAN_FILES)" || rm -f $(CONFIG_CLEAN_FILES)

maintainer-clean-generic:
	@echo "This command is intended for maintainers to use"
	@echo "it deletes files that may require special tools to rebuild."
clean: clean-recursive

clean-am: clean-generic clean-libtool clean-local mostlyclean-am

distclean: distclean-recursive
	-rm -f Makefile
distclean-am: clean-am distclean-generic distclean-local \
	distclean-tags

dvi: dvi-recursive

dvi-am:

html: html-recursive

info: info-recursive

info-am:

install-data-am:

install-dvi: install-dvi-recursive

install-exec-am:

install-html: install-html-recursive

install-info: install-info-recursive

install-man:

install-pdf: install-pdf-recursive

install-pdf-am: install-pdf-local

install-ps: install-ps-recursive

installcheck-am:

maintainer-clean: maintainer-clean-recursive
	-rm -f Makefile
maintainer-clean-am: distclean-am maintainer-clean-generic

mostlyclean: mostlyclean-recursive

mostlyclean-am: mostlyclean-generic mostlyclean-libtool

pdf: pdf-recursive

pdf-am: pdf-local

ps: ps-recursive

ps-am:

uninstall-am:

.MAKE: $(RECURSIVE_CLEAN_TARGETS) $(RECURSIVE_TARGETS) install-am \
	install-strip

.PHONY: $(RECURSIVE_CLEAN_TARGETS) $(RECURSIVE_TARGETS) CTAGS GTAGS \
	all all-am check check-am clean clean-generic clean-libtool \
	clean-local ctags ctags-recursive distclean distclean-generic \
	distclean-libtool distclean-local distclean-tags distdir dvi \
	dvi-am html html-am info info-am install install-am \
	install-data install-data-am install-dvi install-dvi-am \
	install-exec install-exec-am install-html install-html-am \
	install-info install-info-am install-man install-pdf \
	install-pdf-am install-pdf-local install-ps install-ps-am \
	install-strip installcheck installcheck-am installdirs \
	installdirs-am maintainer-clean maintainer-clean-generic \
	mostlyclean mostlyclean-generic mostlyclean-libtool pdf pdf-am \
	pdf-local ps ps-am tags tags-recursive uninstall uninstall-am


# One redefines here the standard pdf targets of automake
# so that they handle generation from LaTeX documents.

pdf-local:
	@$(PDFLATEX) $(TEXMAIN)
	@$(PDFLATEX) $(TEXMAIN)
	@$(PDFLATEX) $(TEXMAIN)

clean-local:
	-rm -f *.out *.log *.aux *.toc *.lof *.lot \
	 *.ilg *.idx *.bbl *.blg *.ind *.sym *.nsy 

install-pdf-local:
	$(MKDIR_P) "$(DESTDIR)$(pdfdir)"
	cp -p $(PDFMAIN) $(DESTDIR)$(pdfdir)

distclean-local: clean-local
	-rm -f $(PDFMAIN)
# Tell versions [3.59,3.63) of GNU make to not export all variables.
# Otherwise a system limit (for SysV at least) may be exceeded.
.NOEXPORT:
