[setup]

coupled_domains: fluid:solid

[job_defaults]

n_procs: 
n_threads: 

[fluid]

domain: fluid
n_procs_weight: 1
solver: Code_Saturne

[solid]

domain: solid
n_procs_weight: 1
opt:  -v ens
param: solid-coupling.syd
solver: SYRTHES

