
/home/panos/Applications/Code_Saturne/code_saturne-6.0/arch/Linux_x86_64/libexec/code_saturne/cs_preprocess 
--log --out mesh_input 
/home/panos/Runs/Code_Saturne/HERCULE/HERCULE.1.1.1_CALCUL/MAILLAGE/STUDY_TEST_for_mesh/MESH/avecpointe.des 

  .------------------------------.
  |                              |
  |   Code_Saturne Preprocessor  |
  |                              |
  `------------------------------'

  code_saturne version 6.0.0-patch   (built Thu 14 Nov 2019 07:17:57 CET)

  CGNS 3.4.0 file format support
  MED 4.0.0 (HDF5 1.10.5) file format support
  Reading of compressed files ('.gz') with Zlib 1.2.11



Case configuration
------------------

  Date                : Thu 14 Nov 2019 14:19:55 CET
  System              : Linux 5.3.11-300.fc31.x86_64
  Machine             : Riemann
  Processor           : Intel(R) Core(TM) i7-7700T CPU @ 2.90GHz
  Memory              : 16185644
  User                : panos (Panos Asproulis)
  Directory           : /home/panos/Runs/Code_Saturne/HERCULE/HERCULE.1.1.1_CALCUL/MAILLAGE/STUDY_TEST_for_mesh/CAS1/RESU/preprocess_20191114-1419

  Case name           : preprocess
  Mesh file           : /home/panos/Runs/Code_Saturne/HERCULE/HERCULE.1.1.1_CALCUL/MAILLAGE/STUDY_TEST_for_mesh/MESH/avecpointe.des



Reading mesh from file in NOPO (Simail) format
----------------------
  Mesh file: /home/panos/Runs/Code_Saturne/HERCULE/HERCULE.1.1.1_CALCUL/MAILLAGE/STUDY_TEST_for_mesh/MESH/avecpointe.des


  Title     : SansTitre                                                                      
  Date      : 09/02/2004
  Creator   : picard                  
  Type      : 32 bit
  Dimension : 3

  Initial data:      17595 points
                     17595 nodes
                         0 point elements
                         0 segments
                         0 triangles
                         0 quadrangles
                         0 tetrahedra
                       114 pentahedra
                      8550 hexahedra

  Number of vertices                          :    17595
  Number of faces                             :    17594
                                    Color 2   :     8664
                                    Color 3   :     8664
                                    Color 5   :      114
                                    Color 7   :        5
                                    Color 8   :       33
                                    Color 9   :       38
                                    Color 10  :       76
  Number of cells                             :     8664
                                    Color 19  :     8664

  Wall-clock time: 0.007050 s; CPU time: 0.007014 s


Done reading mesh
-----------------
  Theoretical mesh size:                 1.465 Mb
  Theoretical current memory:            1.867 Mb
  Theoretical peak memory:               4.438 Mb
  Total memory used:                   240.418 Mb

  Domain coordinate extents:

  [ 0.00000e+00, -6.54291e-03,  0.00000e+00]
  [ 1.49857e-01,  6.54291e-03,  1.50000e+00]
  Number of elements                    tria3 :        2
  Number of elements                    quad4 :    17592
  Number of elements                   penta6 :      114
  Number of elements                    hexa8 :     8550



Defining families
-----------------


  Element orientation check.


End of conversion to descending connectivity
--------------------------------------------
  Theoretical mesh size:                 1.952 Mb
  Theoretical current memory:            2.354 Mb
  Theoretical peak memory:               5.337 Mb
  Total memory used:                   241.883 Mb


Main mesh properties
--------------------

  Number of cells:                                  8664
  Number of internal faces:                        17138
  Number of boundary faces:                        17594
  Number of vertices:                              17595


Definition of face and cell families
------------------------------------

  Family 1
         Group "19"
  Number of cells          :     8664
  Family 2
         Group "10"
  Number of boundary faces :       76
  Family 3
         Group "2"
  Number of boundary faces :     8664
  Family 4
         Group "3"
  Number of boundary faces :     8664
  Family 5
         Group "5"
  Number of boundary faces :      114
  Family 6
         Group "7"
  Number of boundary faces :        5
  Family 7
         Group "8"
  Number of boundary faces :       33
  Family 8
         Group "9"
  Number of boundary faces :       38
  Family 8
         Default family
         (no group)
  Number of internal faces :    17138


Write output for Kernel
-----------------------

  Opening file: mesh_input

  Wrote: "start_block:dimensions"
  Wrote: "n_cells"                         ; Type: "u8"; Size: 1
  Wrote: "n_faces"                         ; Type: "u8"; Size: 1
  Wrote: "n_vertices"                      ; Type: "u8"; Size: 1
  Wrote: "face_vertices_size"              ; Type: "u8"; Size: 1
  Wrote: "n_group_classes"                 ; Type: "i8"; Size: 1
  Wrote: "n_group_class_props_max"         ; Type: "i8"; Size: 1
  Wrote: "n_groups"                        ; Type: "u8"; Size: 1
  Wrote: "group_name_index"                ; Type: "i8"; Size: 9
  Wrote: "group_name"                      ; Type: "c "; Size: 18
  Wrote: "group_class_properties"          ; Type: "i8"; Size: 9
  Wrote: "end_block:dimensions"
  Wrote: "start_block:data"
  Wrote: "face_cells"                      ; Type: "i8"; Size: 69464
  Wrote: "cell_group_class_id"             ; Type: "i8"; Size: 8664
  Wrote: "face_group_class_id"             ; Type: "i8"; Size: 34732
  Wrote: "face_vertices_index"             ; Type: "u8"; Size: 34733
  Wrote: "face_vertices"                   ; Type: "i8"; Size: 138813
  Wrote: "vertex_coords"                   ; Type: "r8"; Size: 52785
  Wrote: "end_block:data"
  Wrote: "EOF"

  Closing file: mesh_input


Time and memory summary
-----------------------

  User CPU time                       (sec)   :        0.03
  System CPU time                     (sec)   :        0.01
  Total time                          (sec)   :        0.03
  Total CPU time / Total time                 :        1.27

Memory use summary:

  Total memory used:                                 241.883 Mb
  Theoretical instrumented dynamic memory:             5.337 Mb


  .-----------------------.
  |                       |
  |  Preprocessor finish  |
  |                       |
  `-----------------------'


