command: 
 /home/panos/Applications/Code_Saturne/code_saturne-6.0/arch/Linux_x86_64/libexec/code_saturne/cs_solver --preprocess

***************************************************************

                                  (R)
                      Code_Saturne

                      Version 6.0.0-patch


  Copyright (C) 1998-2019 EDF S.A., France

  revision a41893642-m
  build Thu 14 Nov 2019 07:18:03 CET
  MPI version 3.1 (Open MPI 4.0.2)


  The Code_Saturne CFD tool  is free software;
  you can redistribute it and/or modify it under the terms
  of the GNU General Public License as published by the
  Free Software Foundation; either version 2 of the License,
  or (at your option) any later version.

  The Code_Saturne CFD tool is distributed in the hope that
  it will be useful, but WITHOUT ANY WARRANTY; without even
  the implied warranty of MERCHANTABILITY or FITNESS FOR A
  PARTICULAR PURPOSE.  See the GNU General Public License
  for more details.

***************************************************************


Local case configuration:

  Date:                Thu 14 Nov 2019 14:19:55 CET
  System:              Linux 5.3.11-300.fc31.x86_64
  Machine:             Riemann
  Processor:           model name	: Intel(R) Core(TM) i7-7700T CPU @ 2.90GHz
  Memory:              15806 MB
  User:                panos (Panos Asproulis)
  Directory:           /home/panos/Runs/Code_Saturne/HERCULE/HERCULE.1.1.1_CALCUL/MAILLAGE/STUDY_TEST_for_mesh/CAS1/RESU/preprocess_20191114-1419
  OpenMP threads:      1
  Processors/node:     8
  I/O read method:     standard input and output, serial access
  I/O write method:    standard input and output, serial access

  External libraries for partitioning:
    ParMETIS 4.0.3
    PT-SCOTCH 6.0.6

 Reading metadata from file: "mesh_input"

Postprocessing output writers:
------------------------------

  -1: name: results
      directory: postprocessing
      format: MED 4.0.0
      options: separate_meshes
      time dependency: fixed mesh
      output: at calculation end

  -5: name: 
      directory: monitoring
      format: time_plot
      options: 
      time dependency: fixed mesh
      output: every 1 time steps

  -6: name: 
      directory: profiles
      format: plot
      options: 
      time dependency: fixed mesh
      output: at calculation end

  -7: name: histograms
      directory: histograms
      format: histogram
      options: txt
      time dependency: fixed mesh
      output: at calculation end


 Reading file:        mesh_input
 Finished reading:    mesh_input

 Number of cells:                                      8664

 ----------------------------------------------------------
 Number of cells + halo cells:                         8664


 ----------------------------------------------------------
 Number of interior faces:                             17138

 ----------------------------------------------------------
 Number of boundary faces:                             17594

 ----------------------------------------------------------

 Histogram of the number of interior faces per cell:

    minimum value =                  2
    maximum value =                  4

      1 : [          2 ;          3 [ =          4
      2 : [          3 ;          4 ] =       8660

 ----------------------------------------------------------

 Renumbering mesh:

   renumbering for cells:
     pre-numbering:                       no renumbering
     cells adjacent to ghost cells last:  no
     numbering:                           no renumbering

   renumbering for interior faces:
     cell adjacency pre-ordering:         lowest id first
     faces adjacent to ghost cells last:  no
     numbering:                           multipass

   renumbering for boundary faces:
     numbering:                           no shared cell across threads

   renumbering for vertices:
     numbering:                           no renumbering

 Numbering for cells:

 type: default
  number of halo-adjacent elements:       8664

 Numbering for interior faces:

 type: default
  number of halo-adjacent elements:      17138

 Numbering for boundary faces:

 type: default
  number of halo-adjacent elements:      17594

 ----------------------------------------------------------

 Matrix bandwidth for volume mesh :          8651
 Matrix profile/lines for volume mesh :      523

 Mesh coordinates:               minimum    and maximum
                       X :  0.0000000e+00  1.4985724e-01
                       Y : -6.5429071e-03  6.5429071e-03
                       Z :  0.0000000e+00  1.5000000e+00
 Mesh
     Number of cells:          8664
     Number of interior faces: 17138
     Number of boundary faces: 17594
     Number of vertices:       17595

 Groups:
    "10"
       boundary faces:           76
    "19"
       cells:                  8664
    "2"
       boundary faces:         8664
    "3"
       boundary faces:         8664
    "5"
       boundary faces:          114
    "7"
       boundary faces:            5
    "8"
       boundary faces:           33
    "9"
       boundary faces:           38

 --- Information on the volumes
       Minimum control volume      =  6.1096483e-10
       Maximum control volume      =  8.4199279e-07
       Total volume for the domain =  1.4707530e-03

  Criterion 1: Orthogonality:
    Number of bad cells detected: 0 -->   0 %

  Criterion 2: Offset:
    Number of bad cells detected: 0 -->   0 %

  Criterion 3: Least-Squares Gradient Quality:
    Number of bad cells detected: 0 -->   0 %

  Criterion 4: Cells Volume Ratio:
    Number of bad cells detected: 0 -->   0 %

  Criterion 5: Guilt by Association:
    Number of bad cells detected: 0 -->   0 %

 Computing geometric quantities (0.0134 s)

 --- Information on volume zones
  Volume zone "cells"
    id              = 0
    Number of cells = 8664
    Volume          =  1.4707530e-03
    Surface         = -1 (not computed)
    Fluid surface   = -1 (not computed)
  Volume zone "all_cells"
    id              = 1
    Number of cells = 8664
    Volume          =  1.4707530e-03
    Surface         = -1 (not computed)
    Fluid surface   = -1 (not computed)

 --- Information on boundary zones
  Boundary zone "boundary_faces"
    id              = 0
    Number of faces = 17594
    Surface         =  4.7158974e-01
    Fluid surface   =  4.7158974e-01
    Perimeter       = -1 (not computed)
    Fluid perimeter = -1 (not computed)

 Checking the mesh structure coherency:
    Checking the face -> cells connectivity coherency
    Coherency criteria definition
    Coherency verification on coordinates
 End of coherency check of the mesh structure.

 Destroying structures and ending computation
