========================================================
Start time       : Thursday November 14 14:19:55 CEST 2019
========================================================
  Command        : /home/panos/Applications/Code_Saturne/code_saturne-6.0/arch/Linux_x86_64/bin/code_saturne run --param import_setup.xml --id preprocess_20191114-1419
========================================================
  Package path   : /home/panos/Applications/Code_Saturne/code_saturne-6.0/arch/Linux_x86_64/
  ----------------------------------------------------
  MPI path       : 
  MPI type       : OpenMPI
  ----------------------------------------------------
  User           : panos
  ----------------------------------------------------
  Machine        : Linux Riemann 5.3.11-300.fc31.x86_64 #1 SMP Tue Nov 12 19:08:07 UTC 2019 x86_64 x86_64 
  N Procs        : 1
  ----------------------------------------------------
  Environment variables
    BASH_FUNC__module_raw%%=() {  unset _mlshdbg;
 if [ "${MODULES_SILENT_SHELL_DEBUG:-0}" = '1' ]; then
 case "$-" in 
 *v*x*)
 set +vx;
 _mlshdbg='vx'
 ;;
 *v*)
 set +v;
 _mlshdbg='v'
 ;;
 *x*)
 set +x;
 _mlshdbg='x'
 ;;
 *)
 _mlshdbg=''
 ;;
 esac;
 fi;
 unset _mlre _mlIFS;
 if [ -n "${IFS+x}" ]; then
 _mlIFS=$IFS;
 fi;
 IFS=' ';
 for _mlv in ${MODULES_RUN_QUARANTINE:-};
 do
 if [ "${_mlv}" = "${_mlv##*[!A-Za-z0-9_]}" -a "${_mlv}" = "${_mlv#[0-9]}" ]; then
 if [ -n "`eval 'echo ${'$_mlv'+x}'`" ]; then
 _mlre="${_mlre:-}${_mlv}_modquar='`eval 'echo ${'$_mlv'}'`' ";
 fi;
 _mlrv="MODULES_RUNENV_${_mlv}";
 _mlre="${_mlre:-}${_mlv}='`eval 'echo ${'$_mlrv':-}'`' ";
 fi;
 done;
 if [ -n "${_mlre:-}" ]; then
 eval `eval ${_mlre}/usr/bin/tclsh /usr/share/Modules/libexec/modulecmd.tcl bash '"$@"'`;
 else
 eval `/usr/bin/tclsh /usr/share/Modules/libexec/modulecmd.tcl bash "$@"`;
 fi;
 _mlstatus=$?;
 if [ -n "${_mlIFS+x}" ]; then
 IFS=$_mlIFS;
 else
 unset IFS;
 fi;
 unset _mlre _mlv _mlrv _mlIFS;
 if [ -n "${_mlshdbg:-}" ]; then
 set -$_mlshdbg;
 fi;
 unset _mlshdbg;
 return $_mlstatus
}
    BASH_FUNC_module%%=() {  _module_raw "$@" 2>&1
}
    BASH_FUNC_scl%%=() {  if [ "$1" = "load" -o "$1" = "unload" ]; then
 eval "module $@";
 else
 /usr/bin/scl "$@";
 fi
}
    BASH_FUNC_spack%%=() {  if [ -n "${ZSH_VERSION:-}" ]; then
 emulate -L sh;
 fi;
 _sp_flags="";
 while [ ! -z ${1+x} ] && [ "${1#-}" != "${1}" ]; do
 _sp_flags="$_sp_flags $1";
 shift;
 done;
 if [ -n "$_sp_flags" ] && [ "${_sp_flags#*h}" != "${_sp_flags}" ] || [ "${_sp_flags#*V}" != "${_sp_flags}" ]; then
 command spack $_sp_flags "$@";
 return;
 fi;
 _sp_subcommand="";
 if [ ! -z ${1+x} ]; then
 _sp_subcommand="$1";
 shift;
 fi;
 case $_sp_subcommand in 
 "cd")
 _sp_arg="";
 if [ -n "$1" ]; then
 _sp_arg="$1";
 shift;
 fi;
 if [ "$_sp_arg" = "-h" ] || [ "$_sp_arg" = "--help" ]; then
 command spack cd -h;
 else
 LOC="$(spack location $_sp_arg "$@")";
 if [ -d "$LOC" ]; then
 cd "$LOC";
 else
 return 1;
 fi;
 fi;
 return
 ;;
 "env")
 _sp_arg="";
 if [ -n "$1" ]; then
 _sp_arg="$1";
 shift;
 fi;
 if [ "$_sp_arg" = "-h" ] || [ "$_sp_arg" = "--help" ]; then
 command spack env -h;
 else
 case $_sp_arg in 
 activate)
 _a="$@";
 if [ -z ${1+x} ] || [ "${_a#*--sh}" != "$_a" ] || [ "${_a#*--csh}" != "$_a" ] || [ "${_a#*-h}" != "$_a" ]; then
 command spack env activate "$@";
 else
 eval $(command spack $_sp_flags env activate --sh "$@");
 fi
 ;;
 deactivate)
 _a="$@";
 if [ "${_a#*--sh}" != "$_a" ] || [ "${_a#*--csh}" != "$_a" ]; then
 command spack env deactivate "$@";
 else
 if [ -n "$*" ]; then
 command spack env deactivate -h;
 else
 eval $(command spack $_sp_flags env deactivate --sh);
 fi;
 fi
 ;;
 *)
 command spack env $_sp_arg "$@"
 ;;
 esac;
 fi;
 return
 ;;
 "load" | "unload")
 _sp_subcommand_args="";
 _sp_module_args="";
 while [ "${1#-}" != "${1}" ]; do
 if [ "$1" = "-h" ] || [ "$1" = "--help" ]; then
 command spack $_sp_flags $_sp_subcommand $_sp_subcommand_args "$@";
 return;
 else
 if [ "$1" = "-r" ] || [ "$1" = "--dependencies" ]; then
 _sp_subcommand_args="$_sp_subcommand_args $1";
 else
 _sp_module_args="$_sp_module_args $1";
 fi;
 fi;
 shift;
 done;
 case $_sp_subcommand in 
 "load")
 if _sp_full_spec=$(command spack $_sp_flags module tcl find $_sp_subcommand_args "$@"); then
 module load $_sp_module_args $_sp_full_spec;
 else
 $(exit 1);
 fi
 ;;
 "unload")
 if _sp_full_spec=$(command spack $_sp_flags module tcl find $_sp_subcommand_args "$@"); then
 module unload $_sp_module_args $_sp_full_spec;
 else
 $(exit 1);
 fi
 ;;
 esac
 ;;
 *)
 command spack $_sp_flags $_sp_subcommand "$@"
 ;;
 esac
}
    BASH_FUNC_switchml%%=() {  typeset swfound=1;
 if [ "${MODULES_USE_COMPAT_VERSION:-0}" = '1' ]; then
 typeset swname='main';
 if [ -e /usr/share/Modules/libexec/modulecmd.tcl ]; then
 typeset swfound=0;
 unset MODULES_USE_COMPAT_VERSION;
 fi;
 else
 typeset swname='compatibility';
 if [ -e /usr/share/Modules/libexec/modulecmd-compat ]; then
 typeset swfound=0;
 MODULES_USE_COMPAT_VERSION=1;
 export MODULES_USE_COMPAT_VERSION;
 fi;
 fi;
 if [ $swfound -eq 0 ]; then
 echo "Switching to Modules $swname version";
 source /usr/share/Modules/init/bash;
 else
 echo "Cannot switch to Modules $swname version, command not found";
 return 1;
 fi
}
    CFLAGS=-fPIC -march=native
    COLORTERM=truecolor
    CXXFLAGS=-fPIC -march=native
    DBUS_SESSION_BUS_ADDRESS=unix:path=/run/user/1000/bus
    DESKTOP_SESSION=gnome-xorg
    DISPLAY=:0
    FFLAGS=-fPIC -march=native
    GDMSESSION=gnome-xorg
    GDM_LANG=en_GB.UTF-8
    GNOME_TERMINAL_SCREEN=/org/gnome/Terminal/screen/204907a1_eb8a_486e_ade4_cd0a729afe9e
    GNOME_TERMINAL_SERVICE=:1.452
    HISTCONTROL=ignoredups
    HISTSIZE=1000
    HOME=/home/panos
    HOSTNAME=Riemann
    INSIDE_NAUTILUS_PYTHON=
    INVOCATION_ID=df3f8dfd4def4f19b63e08da7ea4e268
    JOURNAL_STREAM=9:478030
    KDEDIRS=/usr
    LANG=en_GB.UTF-8
    LATEX_MK_DIR=/usr/share/latex-mk
    LDFLAGS=-fPIC
    LD_LIBRARY_PATH=/home/panos/Libraries/SCOTCH/lib:/home/panos/Applications/Code_Saturne/code_saturne-6.1-alpha/arch/Linux_x86_64/lib:/usr/lib:/home/panos/Libraries/PARMETIS/lib:/home/panos/Development/Salome/V8.5.0/prerequisites/install/Hdf5-1814-cm362/lib:/home/panos/Development/Salome/V8.5.0/prerequisites/install/Medfichier-331-hdf51814-py2710-sw2012/lib:/home/panos/Libraries/SCOTCH/lib:/home/panos/Applications/Code_Saturne/code_saturne-6.1-alpha/arch/Linux_x86_64/lib:/usr/lib:/home/panos/Libraries/PARMETIS/lib:/home/panos/Development/Salome/V8.5.0/prerequisites/install/Hdf5-1814-cm362/lib:/home/panos/Development/Salome/V8.5.0/prerequisites/install/Medfichier-331-hdf51814-py2710-sw2012/lib::/opt/flang/lib:/opt/flang/lib
    LESSOPEN=||/usr/bin/lesspipe.sh %s
    LOADEDMODULES=
    LOGNAME=panos
    LS_COLORS=rs=0:di=38;5;33:ln=38;5;51:mh=00:pi=40;38;5;11:so=38;5;13:do=38;5;5:bd=48;5;232;38;5;11:cd=48;5;232;38;5;3:or=48;5;232;38;5;9:mi=01;37;41:su=48;5;196;38;5;15:sg=48;5;11;38;5;16:ca=48;5;196;38;5;226:tw=48;5;10;38;5;16:ow=48;5;10;38;5;21:st=48;5;21;38;5;15:ex=38;5;40:*.tar=38;5;9:*.tgz=38;5;9:*.arc=38;5;9:*.arj=38;5;9:*.taz=38;5;9:*.lha=38;5;9:*.lz4=38;5;9:*.lzh=38;5;9:*.lzma=38;5;9:*.tlz=38;5;9:*.txz=38;5;9:*.tzo=38;5;9:*.t7z=38;5;9:*.zip=38;5;9:*.z=38;5;9:*.dz=38;5;9:*.gz=38;5;9:*.lrz=38;5;9:*.lz=38;5;9:*.lzo=38;5;9:*.xz=38;5;9:*.zst=38;5;9:*.tzst=38;5;9:*.bz2=38;5;9:*.bz=38;5;9:*.tbz=38;5;9:*.tbz2=38;5;9:*.tz=38;5;9:*.deb=38;5;9:*.rpm=38;5;9:*.jar=38;5;9:*.war=38;5;9:*.ear=38;5;9:*.sar=38;5;9:*.rar=38;5;9:*.alz=38;5;9:*.ace=38;5;9:*.zoo=38;5;9:*.cpio=38;5;9:*.7z=38;5;9:*.rz=38;5;9:*.cab=38;5;9:*.wim=38;5;9:*.swm=38;5;9:*.dwm=38;5;9:*.esd=38;5;9:*.jpg=38;5;13:*.jpeg=38;5;13:*.mjpg=38;5;13:*.mjpeg=38;5;13:*.gif=38;5;13:*.bmp=38;5;13:*.pbm=38;5;13:*.pgm=38;5;13:*.ppm=38;5;13:*.tga=38;5;13:*.xbm=38;5;13:*.xpm=38;5;13:*.tif=38;5;13:*.tiff=38;5;13:*.png=38;5;13:*.svg=38;5;13:*.svgz=38;5;13:*.mng=38;5;13:*.pcx=38;5;13:*.mov=38;5;13:*.mpg=38;5;13:*.mpeg=38;5;13:*.m2v=38;5;13:*.mkv=38;5;13:*.webm=38;5;13:*.ogm=38;5;13:*.mp4=38;5;13:*.m4v=38;5;13:*.mp4v=38;5;13:*.vob=38;5;13:*.qt=38;5;13:*.nuv=38;5;13:*.wmv=38;5;13:*.asf=38;5;13:*.rm=38;5;13:*.rmvb=38;5;13:*.flc=38;5;13:*.avi=38;5;13:*.fli=38;5;13:*.flv=38;5;13:*.gl=38;5;13:*.dl=38;5;13:*.xcf=38;5;13:*.xwd=38;5;13:*.yuv=38;5;13:*.cgm=38;5;13:*.emf=38;5;13:*.ogv=38;5;13:*.ogx=38;5;13:*.aac=38;5;45:*.au=38;5;45:*.flac=38;5;45:*.m4a=38;5;45:*.mid=38;5;45:*.midi=38;5;45:*.mka=38;5;45:*.mp3=38;5;45:*.mpc=38;5;45:*.ogg=38;5;45:*.ra=38;5;45:*.wav=38;5;45:*.oga=38;5;45:*.opus=38;5;45:*.spx=38;5;45:*.xspf=38;5;45:
    MAIL=/var/spool/mail/panos
    MANAGERPID=144143
    MANPATH=:
    MODULEPATH=/etc/scl/modulefiles:/etc/scl/modulefiles:/usr/share/Modules/modulefiles:/etc/modulefiles:/usr/share/modulefiles
    MODULEPATH_modshare=/usr/share/modulefiles:1:/usr/share/Modules/modulefiles:1:/etc/modulefiles:1
    MODULESHOME=/usr/share/Modules
    MODULES_CMD=/usr/share/Modules/libexec/modulecmd.tcl
    MODULES_RUN_QUARANTINE=LD_LIBRARY_PATH
    NOM_ARCH=Linux_x86_64
    OLDPWD=/home/panos/Runs/Code_Saturne/HERCULE/HERCULE.1.1.1_CALCUL/MAILLAGE/STUDY_TEST_for_mesh/MESH
    PATH=/home/panos/Applications/Code_Saturne/code_saturne-6.0/arch/Linux_x86_64/bin:/home/panos/Development/Syrthes/arch/Linux_x86_64/bin:/home/panos/.cargo/bin:./:/home/panos/.local/bin:/home/panos/bin:/home/panos/.cargo/bin:/home/panos/Development/Syrthes/arch/Linux_x86_64/bin:/home/panos/.cargo/bin:/home/panos/spack/bin:./:/home/panos/.local/bin:/home/panos/bin:/home/panos/.local/bin:/home/panos/bin:/usr/share/Modules/bin:/usr/lib64/ccache:/usr/local/bin:/usr/local/sbin:/usr/bin:/usr/sbin:/home/panos/.dotnet/tools:/opt/pgi/linux86-64/2019/bin:/opt/flang/bin:/home/panos/Applications/Code_Saturne/code_saturne/arch/Linux_x86_64/bin:/home/panos/Applications/Code_Saturne/code_saturne/arch/Linux_x86_64/libexec/code_saturne:/home/panos/Development/Syrthes/arch/Linux_x86_64/bin:/home/panos/.dotnet/tools:/opt/pgi/linux86-64/2019/bin:/opt/flang/bin:/home/panos/Applications/Code_Saturne/code_saturne/arch/Linux_x86_64/bin:/home/panos/Applications/Code_Saturne/code_saturne/arch/Linux_x86_64/libexec/code_saturne:/home/panos/Development/Syrthes/arch/Linux_x86_64/bin
    PWD=/home/panos/Runs/Code_Saturne/HERCULE/HERCULE.1.1.1_CALCUL/MAILLAGE/STUDY_TEST_for_mesh/CAS1/SCRIPTS
    QT_IM_MODULE=ibus
    QT_QPA_PLATFORMTHEME=qt5ct
    SESSION_MANAGER=local/unix:@/tmp/.ICE-unix/144422,unix/unix:/tmp/.ICE-unix/144422
    SHELL=/bin/bash
    SHLVL=1
    SPACK_ROOT=/home/panos/spack
    SSH_AGENT_PID=144239
    SSH_ASKPASS=/usr/libexec/openssh/gnome-ssh-askpass
    SSH_AUTH_SOCK=/run/user/1000/keyring/ssh
    SYRTHES4_HOME=/home/panos/Development/Syrthes/arch/Linux_x86_64
    SYRTHES4_MPIPATH=/usr
    TERM=xterm-256color
    USER=panos
    USERNAME=panos
    VTE_VERSION=5802
    WINDOWPATH=2
    XAUTHORITY=/run/user/1000/gdm/Xauthority
    XDG_CURRENT_DESKTOP=GNOME
    XDG_DATA_DIRS=/home/panos/.local/share/flatpak/exports/share/:/var/lib/flatpak/exports/share/:/usr/local/share/:/usr/share/
    XDG_MENU_PREFIX=gnome-
    XDG_RUNTIME_DIR=/run/user/1000
    XDG_SESSION_CLASS=user
    XDG_SESSION_DESKTOP=gnome-xorg
    XDG_SESSION_TYPE=x11
    XMODIFIERS=@im=ibus
    _=/home/panos/Applications/Code_Saturne/code_saturne-6.0/arch/Linux_x86_64/bin/code_saturne
  ----------------------------------------------------
  Case           : CAS1
    directory    : /home/panos/Runs/Code_Saturne/HERCULE/HERCULE.1.1.1_CALCUL/MAILLAGE/STUDY_TEST_for_mesh/CAS1
    results dir. : /home/panos/Runs/Code_Saturne/HERCULE/HERCULE.1.1.1_CALCUL/MAILLAGE/STUDY_TEST_for_mesh/CAS1/RESU/preprocess_20191114-1419
    preprocessor : /home/panos/Applications/Code_Saturne/code_saturne-6.0/arch/Linux_x86_64/libexec/code_saturne/cs_preprocess
    solver       : /home/panos/Applications/Code_Saturne/code_saturne-6.0/arch/Linux_x86_64/libexec/code_saturne/cs_solver
  ----------------------------------------------------
========================================================
Finish time      : Thursday November 14 14:19:55 CEST 2019
========================================================
