command: 
 ./cs_solver

***************************************************************

                                  (R)
                      Code_Saturne

                      Version 6.2-alpha


  Copyright (C) 1998-2020 EDF S.A., France

  revision 145af53c5
  build Fri 14 Aug 2020 15:03:55 CEST
  MPI version 3.1 (Open MPI 4.0.3)


  The Code_Saturne CFD tool  is free software;
  you can redistribute it and/or modify it under the terms
  of the GNU General Public License as published by the
  Free Software Foundation; either version 2 of the License,
  or (at your option) any later version.

  The Code_Saturne CFD tool is distributed in the hope that
  it will be useful, but WITHOUT ANY WARRANTY; without even
  the implied warranty of MERCHANTABILITY or FITNESS FOR A
  PARTICULAR PURPOSE.  See the GNU General Public License
  for more details.

***************************************************************


Local case configuration:

  Date:                Fri 14 Aug 2020 15:09:09 CEST
  System:              Linux 5.4.0-42-generic (Ubuntu 20.04.1 LTS)
  Machine:             Riemann
  Processor:           model name	: Intel(R) Core(TM) i7-7700T CPU @ 2.90GHz
  Memory:              15806 MB
  User:                panos (Panos Asproulis)
  Directory:           /home/panos/Runs/LAGR/HERCULE/HERCULE-6.0.2-CALC/HERCULE-DIPH-CPL-RijLRR/RESU/20200814-1509
  OpenMP threads:      8
  Processors/node:     8

  Compilers used for build:
    C compiler:        gcc (Ubuntu 9.3.0-10ubuntu2) 9.3.0
    C++ compiler:      g++ (Ubuntu 9.3.0-10ubuntu2) 9.3.0
    Fortran compiler:  GNU Fortran (Ubuntu 9.3.0-10ubuntu2) 9.3.0

  I/O read method:     standard input and output, serial access
  I/O write method:    standard input and output, serial access

  External libraries for partitioning:
    ParMETIS 4.0.3
    PT-SCOTCH 6.0.6

 Reading metadata from file: "restart/mesh_input.csm"

===============================================================

                   CALCULATION PREPARATION
                   =======================


 ===========================================================




 No error detected during the data verification
                          cs_user_parameters.f90 and others).


 ===========================================================

               CALCULATION PARAMETERS SUMMARY
               ==============================

 -----------------------------------------------------------


 ** DIMENSIONS
    ----------

 --- Physics
       NVAR   =             11 (Nb variables                )
       NSCAL  =              0 (Nb scalars                  )
       NSCAUS =              0 (Nb user scalars             )
       NSCAPP =              0 (Nb specific physics scalars )


 -----------------------------------------------------------


 ** HOMOGENEOUS MIXTURE MODEL VoF           
    ----------------------------------------

       IVOFMT =              0 ( 0  : disabled              )
                               ( > 0: enabled               )


 -----------------------------------------------------------


 ** TIME STEPPING
    -------------

 --- Per-variable properties

------------------------------------
 Variable          ISTAT      CDTVAR
------------------------------------
 Velocity              1  0.1000E+01
 Pressure              0  0.1000E+01
 Rij                   1  0.1000E+01
 epsilon               1  0.1000E+01
----------------------------

       ISTAT  =  0 ou  1       (1 for unsteady              )
       CDTVAR >  0             (time step multiplier        )

 --- Order of base time stepping scheme
       ISCHTP =              1 (1: order 1; 2: order 2      )
                                                             

 -----------------------------------------------------------


 ** STOKES
    ------

  -- Continuous phase:

       ISTMPF =              1 (time scheme for flow
                               (0: explicit (THETFL = 0     )
                               (1: std scheme (Saturne 1.0  )
                               (2: 2nd-order (THETFL = 0.5  )
       THETFL =   -0.99900E+03 (theta for mass flow         )
       THETVI =    0.00000E+00 (theta for total viscosity
                               ((1+theta).new-theta.old
       THETCP =   -0.99900E+03 (specific heat theta-scheme
                               ((1+theta).new-theta.old
       THETSN =    0.00000E+00 (Nav-Stokes S.T. theta scheme)
                               ((1+theta).new-theta.old
       THETST =    0.00000E+00 (Turbulence S.T. theta-scheme)
                               ((1+theta).new-theta.old
       EPSUP  =    0.10000E-04 (Velocity/pressure coupling
                                stop test                   )


 -----------------------------------------------------------


 ** CALCULATION MANAGEMENT
    ----------------------

 --- Restarted calculation
       ISUITE =              1 (1: restarted calculation    )
       ILEAUX =              1 (1: read  restart/auxiliary  )
       IECAUX =              1 (1: write checkpoint/auxiliary)


 --- Calculation time
     The numbering of time steps and the measure of simulated
       physical time are absolute values, and not values
       relative to the current calculation.

       NTPABS =           7000 (Initial time step)
       NTMABS =           7000 (Final time step required)


 -----------------------------------------------------------


 ** INPUT-OUTPUT
    ------------

 --- Restart file
       NTSUIT =              0 (Checkpoint frequency )

 --- Probe history files
       NTHIST =              1 (Output frequency     )
       FRHIST =     -.10000E+01 (Output frequency (s) )
         --           --                --

 --- run_solver.log files
       NTLIST =              1 (Output frequency     )

         --           --                --

 --- Additional post-processing variables (ipstdv)
       ipstfo =              1 (Force exerted by the
                                     fluid on the boundary)
       ipstyp =              1 (y+ at boundary)
       ipsttp =              0 (T+ at boundary)
       ipstft =              1 (Thermal flux   at boundary)
       ipstnu =              0 (Dimensionless thermal
                                          flux at boundary)


 -----------------------------------------------------------


 ** ALE METHOD (MOVING MESH)
    -----------

       IALE   =              0 (1: activated,2: CDO         )
       NALINF =              0 (Fluid initialization
                                                  iterations)
       IFLXMW =              0 (ALE mass flux computation
                                0: thanks to vertices
                                1: thanks to mesh velocity)


 -----------------------------------------------------------


Postprocessing output writers:
------------------------------

  -1: name: results
      directory: postprocessing
      format: EnSight Gold
      options: separate_meshes
      time dependency: fixed mesh
      output: every  1.00000e-01 s and at calculation end

  -3: name: particles
      directory: postprocessing
      format: EnSight Gold
      options: 
      time dependency: transient connectivity
      output: every  1.00000e-01 s and at calculation end

  -4: name: trajectories
      directory: postprocessing
      format: EnSight Gold
      options: 
      time dependency: fixed mesh
      output: at calculation end

  -5: name: 
      directory: monitoring
      format: time_plot
      options: 
      time dependency: fixed mesh
      output: every 1 time steps

  -6: name: 
      directory: profiles
      format: plot
      options: 
      time dependency: fixed mesh
      output: at calculation end

  -7: name: histograms
      directory: histograms
      format: histogram
      options: txt
      time dependency: fixed mesh
      output: at calculation end


 Reading file:        restart/mesh_input.csm
 Finished reading:    restart/mesh_input.csm

 Number of cells:                                      8664

 ----------------------------------------------------------
 Number of cells + halo cells:                         8664


 ----------------------------------------------------------
 Number of interior faces:                             17138

 ----------------------------------------------------------
 Number of boundary faces:                             17594

 ----------------------------------------------------------

 Histogram of the number of interior faces per cell:

    minimum value =                  2
    maximum value =                  4

      1 : [          2 ;          3 [ =          4
      2 : [          3 ;          4 ] =       8660

 ----------------------------------------------------------

 Renumbering mesh:

   renumbering for cells:
     pre-numbering:                       no renumbering
     cells adjacent to ghost cells last:  no
     numbering:                           no renumbering

   renumbering for interior faces:
     cell adjacency pre-ordering:         lowest id first
     faces adjacent to ghost cells last:  no
     numbering:                           multipass

   renumbering for boundary faces:
     numbering:                           no shared cell across threads

   renumbering for vertices:
     numbering:                           no renumbering

 Numbering for cells:

 type: default
  number of halo-adjacent elements:       8664

 Numbering for interior faces:

 type: threads
  number of threads:                         8
  number of exclusive groups:                3
   number of elements in group  0:       15802
   number of elements in group  1:        1207
   number of elements in group  2:         129
  estimated thread imbalance:            0.268

 Numbering for boundary faces:

 type: threads
  number of threads:                         8
  number of exclusive groups:                1
   number of elements in group  0:       17594
  estimated thread imbalance:            0.001

 ----------------------------------------------------------

 Matrix bandwidth for volume mesh :          8651
 Matrix profile/lines for volume mesh :      523

 Mesh coordinates:               minimum    and maximum
                       X :  0.0000000e+00  1.4985724e-01
                       Y : -6.5429071e-03  6.5429071e-03
                       Z :  0.0000000e+00  1.5000000e+00
 Mesh
     Number of cells:          8664
     Number of interior faces: 17138
     Number of boundary faces: 17594
     Number of vertices:       17595

 Groups:
    "Fluid"
       cells:                  8664
    "Injection"
       boundary faces:            5
    "Inlet"
       boundary faces:           38
    "Outlet"
       boundary faces:           76
    "Symmetry-1"
       boundary faces:         8664
    "Symmetry-2"
       boundary faces:         8664
    "Wall-1"
       boundary faces:          114
    "Wall-2"
       boundary faces:           33

 --- Information on the volumes
       Minimum control volume      =  6.1096483e-10
       Maximum control volume      =  8.4199279e-07
       Total volume for the domain =  1.4707530e-03

  Criterion 1: Orthogonality:
    Number of bad cells detected: 0 -->   0 %

  Criterion 2: Offset:
    Number of bad cells detected: 0 -->   0 %

  Criterion 3: Least-Squares Gradient Quality:
    Number of bad cells detected: 0 -->   0 %

  Criterion 4: Cells Volume Ratio:
    Number of bad cells detected: 0 -->   0 %

  Criterion 5: Guilt by Association:
    Number of bad cells detected: 0 -->   0 %

 Computing geometric quantities (0.00686 s)

 --- Information on volume zones
  Volume zone "cells"
    id              = 0
    Number of cells = 8664
    Volume          =  1.4707530e-03
  Center of gravity = ( 9.9909012e-02, -1.0660102e-11,  7.5000000e-01)
    Surface         = -1 (not computed)
  Volume zone "all_cells"
    id              = 1
    Number of cells = 8664
    Volume          =  1.4707530e-03
  Center of gravity = ( 9.9909012e-02, -1.0660102e-11,  7.5000000e-01)
    Surface         = -1 (not computed)

 --- Information on boundary zones
  Boundary zone "boundary_faces"
    id              = 0
    Number of faces = 17594
    Surface         =  4.7158974e-01
  Center of gravity = ( 7.8151190e-02, -3.1797219e-11,  7.5000000e-01)
    Perimeter       = -1 (not computed)
  Boundary zone "BC_1"
    id              = 1
    Number of faces = 5
    Surface         =  4.3577860e-06
  Center of gravity = ( 6.6603211e-03, -4.6566127e-12,  0.0000000e+00)
    Perimeter       = -1 (not computed)
  Boundary zone "BC_2"
    id              = 2
    Number of faces = 38
    Surface         =  7.3537651e-04
  Center of gravity = ( 1.1655563e-01, -6.0895333e-11,  0.0000000e+00)
    Perimeter       = -1 (not computed)
  Boundary zone "BC_3"
    id              = 3
    Number of faces = 76
    Surface         =  9.8050201e-04
  Center of gravity = ( 9.9904826e-02, -5.1643221e-11,  1.5000000e+00)
    Perimeter       = -1 (not computed)
  Boundary zone "BC_4"
    id              = 4
    Number of faces = 8664
    Surface         =  2.2500001e-01
  Center of gravity = ( 7.4928619e-02,  3.2714536e-03,  7.5000000e-01)
    Perimeter       = -1 (not computed)
  Boundary zone "BC_5"
    id              = 5
    Number of faces = 8664
    Surface         =  2.2500001e-01
  Center of gravity = ( 7.4928619e-02, -3.2714537e-03,  7.5000000e-01)
    Perimeter       = -1 (not computed)
  Boundary zone "BC_6"
    id              = 6
    Number of faces = 114
    Surface         =  1.9628721e-02
  Center of gravity = ( 1.4985724e-01,  6.7426144e-21,  7.5000000e-01)
    Perimeter       = -1 (not computed)
  Boundary zone "BC_7"
    id              = 7
    Number of faces = 33
    Surface         =  2.4076772e-04
  Center of gravity = ( 5.0735980e-02, -2.4234944e-11,  0.0000000e+00)
    Perimeter       = -1 (not computed)

 Probe set: "probes":
   maximum distance between cell centers and requested coordinates: 8.946e-05
                                                             
       ALMAX  =    0.11372E+00 (Characteristic length       )
       ALMAX is the cubic root of the domain volume.

       ALMAX is the length used to initialize the turbulence.
 ------------------------------------------------------------- 


 ----------------------------------------------------------- 

   ** READING MAIN AND AUXILIARY RESTART FILES
      ----------------------------------------


      READING THE MAIN RESTART FILE

 Start reading
 Reading dimensions complete
  Reading the previous time step number (restarting computation)  NTPABS =         7000
  Reading the previous time step number (restarting computation)  TTPABS =   0.7000E+01
 Reading options complete
  Read variables from restart: restart/main.csc
 Reading complete

         READING THE AUXILIARY RESTART FILE             

 Start reading                                          
   Finished reading options                             
  restart/auxiliary.csc: section "ref_presstot01" not present.
@                                                            
@@@@@@@@@@@@@@@@@@@@@@@@@@@@@@@@@@@@@@@@@@@@@@@@@@@@@@@@@@@@@
@                                                            
@ @@ WARNING: WHEN READING THE AUXILIARY RESTART FILE        
@    =======                                                 
@      Lecture des proprietes physiques                      
@                                                            
@    It was not possible to read some values from the        
@      auxiliary restart file.                               
@    They will be initialized by the default values.         
@                                                            
@     This situation can occur when the restart file         
@      originates from a run realised with different         
@      options or when the file is damaged.                  
@                                                            
@    The run will continue...                                
@                                                            
@@@@@@@@@@@@@@@@@@@@@@@@@@@@@@@@@@@@@@@@@@@@@@@@@@@@@@@@@@@@@
@                                                            

   Fin de la lecture des proprietes physiques           
   Fin de la lecture du pas de temps                    
   Fin de la lecture des flux de masse                  
   Fin de la lecture des conditions aux limites         
 End reading                                            

 ----------------------------------------------------------- 


 ** VARIABLES INITIALIZATION
    ------------------------
                                                             
 -----------------------------------------
 Property           Min. value  Max. value
 -----------------------------------------
  density           0.1179E+01  0.1179E+01
  molecular_viscos  0.1833E-04  0.1833E-04
  turbulent_viscos  0.6654E-25  0.3814E-02
 -----------------------------------------



   ** INFORMATION ON BOUNDARY FACES TYPE
      ----------------------------------

-------------------------------------------------------------------------
Boundary type          Code    Nb faces
-------------------------------------------------------------------------
Inlet                     2          43
Smooth wall               5         147
Rough wall                6           0
Symmetry                  4       17328
Free outlet               3          76
Free inlet               14           0
Convective inlet         16           0
Free surface             15           0
Undefined                 1           0
-------------------------------------------------------------------------


  ** Clippings for computed fields
     -----------------------------

   field       initial min     initial max  clips to min  clips to max
-  -------  --------------  --------------  ------------  ------------
a  Rij    
a  Rij[XX]
a  Rij[YY]
a  Rij[ZZ]
a  Rij[XY]
a  Rij[YZ]
a  Rij[XZ]
a  epsilon


  ** Field values on cells
     ---------------------

   field                                    minimum         maximum        set mean    spatial mean
-  --------------------------------  --------------  --------------  --------------  --------------
v  Velocity[X]                             -0.76853         0.58777       -0.069236       -0.048756
v  Velocity[Y]                           -0.0058046       0.0076615     -2.9035e-06      3.9765e-06
v  Velocity[Z]                              -1.7813          6.0902            3.64          4.2801
v  ǁVelocityǁ                              0.018876          6.0903          3.7897          4.3103
v  Pressure                                 -8.3922         0.90643         -2.0092        -0.78505
v  Rij[XX]                                7.683e-13         0.74504         0.10568        0.067426
v  Rij[YY]                                7.683e-13         0.61524         0.10625        0.069907
v  Rij[ZZ]                                7.683e-13         0.94461         0.14944         0.10565
v  Rij[XY]                              -0.00076404      0.00073041      3.1194e-07      2.8792e-07
v  Rij[YZ]                               -0.0026389       0.0017428     -9.7278e-07      3.3074e-07
v  Rij[XZ]                                 -0.45564         0.15474        -0.02985      -0.0072006
v  epsilon                                  0.12705          625.45          6.0781          3.4835
v  TurbVisc                              6.6537e-26        0.003814       0.0014172       0.0012744
v  CourantNb                                      0               0               0               0
v  FourierNb                                      0               0               0               0
v  total_pressure                        1.0132e+05      1.0134e+05      1.0133e+05      1.0133e+05
m  Part_statis_weight                             0               0               0
m  Part_vol_frac                                  0               0               0
m  Part_resid_time                                0               0               0
m  var_particle_residence_time                    0               0               0
m  mean_particle_mass                             0               0               0
m  var_particle_mass                              0               0               0
m  mean_particle_diameter                         0               0               0
m  var_particle_diameter                          0               0               0
m  Part_velocity[X]                               0               0               0
m  Part_velocity[Y]                               0               0               0
m  Part_velocity[Z]                               0               0               0
m  ǁPart_velocityǁ                                0               0               0
m  var_particle_velocity[XX]                      0               0               0
m  var_particle_velocity[YY]                      0               0               0
m  var_particle_velocity[ZZ]                      0               0               0
m  var_particle_velocity[XY]                      0               0               0
m  var_particle_velocity[YZ]                      0               0               0
m  var_particle_velocity[XZ]                      0               0               0
m  particle_cumulative_weight_c1                  0               0               0
m  mean_particle_volume_fraction_c1               0               0               0
m  mean_particle_residence_time_c1                0               0               0
m  var_particle_residence_time_c1                 0               0               0
m  mean_particle_mass_c1                          0               0               0
m  var_particle_mass_c1                           0               0               0
m  mean_particle_diameter_c1                      0               0               0
m  var_particle_diameter_c1                       0               0               0
m  mean_particle_velocity_c1[X]                   0               0               0
m  mean_particle_velocity_c1[Y]                   0               0               0
m  mean_particle_velocity_c1[Z]                   0               0               0
m  ǁmean_particle_velocity_c1ǁ                    0               0               0
m  var_particle_velocity_c1[XX]                   0               0               0
m  var_particle_velocity_c1[YY]                   0               0               0
m  var_particle_velocity_c1[ZZ]                   0               0               0
m  var_particle_velocity_c1[XY]                   0               0               0
m  var_particle_velocity_c1[YZ]                   0               0               0
m  var_particle_velocity_c1[XZ]                   0               0               0
m  TimeAverage_vx                       -0.00071637       0.0067795      1.6075e-06
m  TimeAverage_vz                           -1.9149          6.1083          3.6076

  ** Field values on boundary_faces
     ------------------------------

   field                                    minimum         maximum        set mean    spatial mean
-  --------------------------------  --------------  --------------  --------------  --------------
m  Part_impact_number                             0               0               0
m  Part_bndy_mass_flux                            0               0               0
m  particle_events_weight_c1                      0               0               0
m  particle_mass_flux_density_c1                  0               0               0
m  Part_impact_angle                              0               0               0
m  var_particle_impact_angle                      0               0               0
m  mean_particle_impact_angle_c1                  0               0               0
m  var_particle_impact_angle_c1                   0               0               0
m  Part_impact_velocity                           0               0               0
m  var_particle_impact_velocity                   0               0               0
m  mean_particle_impact_velocity_c1               0               0               0
m  var_particle_impact_velocity_c1                0               0               0
v  Yplus                                          0               0               0               0


  ** Temporal moment accumulated weights
     -----------------------------------

   id   n it.             value
   ---- -------- --------------
   0    3501              3.501
   ** INFORMATION ON THE LAGRANGIAN CALCULATION
--------------------------------------------------------------------------------

   Current number of particles (with and without statistical weight) :

ln  newly injected                                  0      0.00000E+00
ln  out, or deposited and eliminated                0      0.00000E+00
ln  deposited                                       0      0.00000E+00
ln  lost in the location stage                      0
ln  total number at the end of the time step        0      0.00000E+00
--------------------------------------------------------------------------------
   Zone  Class  Mass flow rate(kg/s)      Name (type)
--------------------------------------------------------------------------------
   Unsteady two-way coupling source terms:
--------------------------------------------------------------------------------
Maximum particle volume fraction:    0.00000e+00
Maximum particle mass fraction:      0.00000e+00
Number of cells with a particle volume fraction greater than 0.8:          0
--------------------------------------------------------------------------------


===============================================================



                       MAIN CALCULATION                      
                       ================                      


===============================================================




===============================================================



 Write final restart files
   checkpoint at iteration       7000, Physical time    0.70000E+01


   ** Writing the main restart file
      -----------------------------

 Start writing
  Wrote field names and types to checkpoint at iteration 7000: checkpoint/main.csc
   End writing the options                              
  Wrote main variables to checkpoint: checkpoint/main.csc
 End writing

   ** Writing the auxiliary restart file
      ----------------------------------

 Start writing
   End writing the dimensions and options               
   End writing the physical properties                  
   End writing the time step                            
  Wrote boundary condition coefficients to checkpoint: checkpoint/auxiliary.csc
 End writing
   ** Writing the Lagrangian restart file
-----------------------------------
      End writing info on calculation
      End writing of specific info
    End writing of restart file
      on particle-based variables
   ** Information on lagrangian calculation
      -------------------------------------
    Writing a restart file for volume
    and boundary statistics and for
    return coupling source terms
      Start writing statistics and ST
      End writing statistics and ST
    End writing of restart file
      on statistics and return coupling ST

   ** INFORMATION ON CONVERGENCE
      --------------------------
----------------------------------------------------------------------------
   Variable     Rhs norm      N_iter  Norm. residual   Drift   Time residual
----------------------------------------------------------------------------
c  Velocity     0.00000E+00       0   0.00000E+00   0.19434E+05 0.10000E+04 
c  Velocity[X]                                      0.21856E+02 
c  Velocity[Y]                                      0.41498E-04 
c  Velocity[Z]                                      0.19412E+05 
c  Pressure     0.00000E+00       0   0.00000E+00   0.00000E+00 0.10000E+04 
c  Rij          0.00000E+00       0   0.00000E+00   0.43962E+02 0.99780E+03 
c  Rij[XX]                                          0.97291E+01 
c  Rij[YY]                                          0.93414E+01 
c  Rij[ZZ]                                          0.21619E+02 
c  Rij[XY]                                          0.41783E-06 
c  Rij[YZ]                                          0.97340E-06 
c  Rij[XZ]                                          0.32727E+01 
c  epsilon      0.00000E+00       0   0.00000E+00   0.10095E+06 0.10000E+04 
----------------------------------------------------------------------------
  
  

  ** Clippings for computed fields
     -----------------------------

   field       initial min     initial max  clips to min  clips to max
-  -------  --------------  --------------  ------------  ------------
a  Rij    
a  Rij[XX]
a  Rij[YY]
a  Rij[ZZ]
a  Rij[XY]
a  Rij[YZ]
a  Rij[XZ]
a  epsilon


  ** Field values on cells
     ---------------------

   field                                    minimum         maximum        set mean    spatial mean
-  --------------------------------  --------------  --------------  --------------  --------------
v  Velocity[X]                             -0.76853         0.58777       -0.069236       -0.048756
v  Velocity[Y]                           -0.0058046       0.0076615     -2.9035e-06      3.9765e-06
v  Velocity[Z]                              -1.7813          6.0902            3.64          4.2801
v  ǁVelocityǁ                              0.018876          6.0903          3.7897          4.3103
v  Pressure                                 -8.3922         0.90643         -2.0092        -0.78505
v  Rij[XX]                                7.683e-13         0.74504         0.10568        0.067426
v  Rij[YY]                                7.683e-13         0.61524         0.10625        0.069907
v  Rij[ZZ]                                7.683e-13         0.94461         0.14944         0.10565
v  Rij[XY]                              -0.00076404      0.00073041      3.1194e-07      2.8792e-07
v  Rij[YZ]                               -0.0026389       0.0017428     -9.7278e-07      3.3074e-07
v  Rij[XZ]                                 -0.45564         0.15474        -0.02985      -0.0072006
v  epsilon                                  0.12705          625.45          6.0781          3.4835
v  TurbVisc                              6.6537e-26        0.003814       0.0014172       0.0012744
v  CourantNb                                      0               0               0               0
v  FourierNb                                      0               0               0               0
v  total_pressure                        1.0132e+05      1.0134e+05      1.0133e+05      1.0133e+05
m  Part_statis_weight                             0               0               0
m  Part_vol_frac                                  0               0               0
m  Part_resid_time                                0               0               0
m  var_particle_residence_time                    0               0               0
m  mean_particle_mass                             0               0               0
m  var_particle_mass                              0               0               0
m  mean_particle_diameter                         0               0               0
m  var_particle_diameter                          0               0               0
m  Part_velocity[X]                               0               0               0
m  Part_velocity[Y]                               0               0               0
m  Part_velocity[Z]                               0               0               0
m  ǁPart_velocityǁ                                0               0               0
m  var_particle_velocity[XX]                      0               0               0
m  var_particle_velocity[YY]                      0               0               0
m  var_particle_velocity[ZZ]                      0               0               0
m  var_particle_velocity[XY]                      0               0               0
m  var_particle_velocity[YZ]                      0               0               0
m  var_particle_velocity[XZ]                      0               0               0
m  particle_cumulative_weight_c1                  0               0               0
m  mean_particle_volume_fraction_c1               0               0               0
m  mean_particle_residence_time_c1                0               0               0
m  var_particle_residence_time_c1                 0               0               0
m  mean_particle_mass_c1                          0               0               0
m  var_particle_mass_c1                           0               0               0
m  mean_particle_diameter_c1                      0               0               0
m  var_particle_diameter_c1                       0               0               0
m  mean_particle_velocity_c1[X]                   0               0               0
m  mean_particle_velocity_c1[Y]                   0               0               0
m  mean_particle_velocity_c1[Z]                   0               0               0
m  ǁmean_particle_velocity_c1ǁ                    0               0               0
m  var_particle_velocity_c1[XX]                   0               0               0
m  var_particle_velocity_c1[YY]                   0               0               0
m  var_particle_velocity_c1[ZZ]                   0               0               0
m  var_particle_velocity_c1[XY]                   0               0               0
m  var_particle_velocity_c1[YZ]                   0               0               0
m  var_particle_velocity_c1[XZ]                   0               0               0
m  TimeAverage_vx                       -0.00071637       0.0067795      1.6075e-06
m  TimeAverage_vz                           -1.9149          6.1083          3.6076

  ** Field values on boundary_faces
     ------------------------------

   field                                    minimum         maximum        set mean    spatial mean
-  --------------------------------  --------------  --------------  --------------  --------------
m  Part_impact_number                             0               0               0
m  Part_bndy_mass_flux                            0               0               0
m  particle_events_weight_c1                      0               0               0
m  particle_mass_flux_density_c1                  0               0               0
m  Part_impact_angle                              0               0               0
m  var_particle_impact_angle                      0               0               0
m  mean_particle_impact_angle_c1                  0               0               0
m  var_particle_impact_angle_c1                   0               0               0
m  Part_impact_velocity                           0               0               0
m  var_particle_impact_velocity                   0               0               0
m  mean_particle_impact_velocity_c1               0               0               0
m  var_particle_impact_velocity_c1                0               0               0
v  Yplus                                          0               0               0               0


  ** Temporal moment accumulated weights
     -----------------------------------

   id   n it.             value
   ---- -------- --------------
   0    3501              3.501
   ** INFORMATION ON THE LAGRANGIAN CALCULATION
--------------------------------------------------------------------------------

   Current number of particles (with and without statistical weight) :

ln  newly injected                                  0      0.00000E+00
ln  out, or deposited and eliminated                0      0.00000E+00
ln  deposited                                       0      0.00000E+00
ln  lost in the location stage                      0
ln  total number at the end of the time step        0      0.00000E+00
--------------------------------------------------------------------------------
   Zone  Class  Mass flow rate(kg/s)      Name (type)
--------------------------------------------------------------------------------
   Unsteady two-way coupling source terms:
--------------------------------------------------------------------------------
Maximum particle volume fraction:    0.00000e+00
Maximum particle mass fraction:      0.00000e+00
Number of cells with a particle volume fraction greater than 0.8:          0
--------------------------------------------------------------------------------


===============================================================



                 FINAL STAGE OF THE CALCULATION              
                 ==============================              


 =========================================================== 





 =========================================================== 




                      END OF CALCULATION                     
                      ==================                     


===============================================================

 Destroying structures and ending computation
