[Desktop Entry]
Type=Application
Terminal=false
Exec=CSPATH/bin/code_saturne gui %f
Name=Code_Saturne CSVERSION
Icon=CSPATH/share/code_saturne/images/logo_salome_cfd.png
X-Desktop-File-Install-Version=0.23
GenericName=code_saturne vCSVERSION
Categories=Education;Science;
MimeType=application/x-hdf;
